#======================================================================

# CRYSTAL DATA

#----------------------------------------------------------------------

data_VESTA_phase_1


_chemical_name_common                  'POSCAR file written by Ovito Basic 3.0'
_cell_length_a                         26.33700
_cell_length_b                         86.31940
_cell_length_c                         14.36430
_cell_angle_alpha                      90
_cell_angle_beta                       90
_cell_angle_gamma                      90
_space_group_name_H-M_alt              'P 1'
_space_group_IT_number                 1

loop_
_space_group_symop_operation_xyz
   'x, y, z'

loop_
   _atom_site_label
   _atom_site_occupancy
   _atom_site_fract_x
   _atom_site_fract_y
   _atom_site_fract_z
   _atom_site_adp_type
   _atom_site_B_iso_or_equiv
   _atom_site_type_symbol
   C1         1.0     0.272101      0.280469      0.394022     Biso  1.000000 C
   C2         1.0     0.358441      0.275623      0.453514     Biso  1.000000 C
   C3         1.0     0.308877      0.270327      0.432086     Biso  1.000000 C
   C4         1.0     0.633341      0.280353      0.387859     Biso  1.000000 C
   C5         1.0     0.716696      0.277346      0.460677     Biso  1.000000 C
   C6         1.0     0.669385      0.270894      0.434273     Biso  1.000000 C
   C7         1.0     0.123419      0.325447      0.268559     Biso  1.000000 C
   C8         1.0     0.175494      0.321387      0.272606     Biso  1.000000 C
   C9         1.0     0.201324      0.348492      0.258709     Biso  1.000000 C
   C10        1.0     0.214196      0.332699      0.264118     Biso  1.000000 C
   C11        1.0     0.149437      0.352551      0.267485     Biso  1.000000 C
   C12        1.0     0.110213      0.341322      0.267536     Biso  1.000000 C
   C13        1.0     0.134734      0.329425      0.481783     Biso  1.000000 C
   C14        1.0     0.175365      0.318779      0.490696     Biso  1.000000 C
   C15        1.0     0.195255      0.350712      0.494433     Biso  1.000000 C
   C16        1.0     0.144856      0.345524      0.481002     Biso  1.000000 C
   C17        1.0     0.475484      0.326255      0.277763     Biso  1.000000 C
   C18        1.0     0.344491      0.319102      0.388459     Biso  1.000000 C
   C19        1.0     0.331565      0.301762      0.404648     Biso  1.000000 C
   C20        1.0     0.282700      0.296363      0.379664     Biso  1.000000 C
   C21        1.0     0.368927      0.291457      0.440438     Biso  1.000000 C
   C22        1.0     0.463412      0.342119      0.278256     Biso  1.000000 C
   C23        1.0     0.496151      0.326678      0.483152     Biso  1.000000 C
   C24        1.0     0.699708      0.320103      0.390989     Biso  1.000000 C
   C25        1.0     0.689478      0.302500      0.402033     Biso  1.000000 C
   C26        1.0     0.642703      0.296244      0.371520     Biso  1.000000 C
   C27        1.0     0.726941      0.293175      0.444569     Biso  1.000000 C
   C28        1.0     0.526885      0.321800      0.264571     Biso  1.000000 C
   C29        1.0     0.555423      0.348791      0.252325     Biso  1.000000 C
   C30        1.0     0.566378      0.332800      0.252389     Biso  1.000000 C
   C31        1.0     0.503882      0.352644      0.264968     Biso  1.000000 C
   C32        1.0     0.505409      0.341962      0.449210     Biso  1.000000 C
   C33        1.0     0.549795      0.349468      0.482691     Biso  1.000000 C
   C34        1.0     0.136572      0.369744      0.288095     Biso  1.000000 C
   C35        1.0     0.207729      0.368270      0.496139     Biso  1.000000 C
   C36        1.0     0.257455      0.392106      0.349498     Biso  1.000000 C
   C37        1.0     0.347259      0.384061      0.370390     Biso  1.000000 C
   C38        1.0     0.294965      0.381040      0.336074     Biso  1.000000 C
   C39        1.0     0.487693      0.369809      0.274042     Biso  1.000000 C
   C40        1.0     0.321545      0.412095      0.372505     Biso  1.000000 C
   C41        1.0     0.270486      0.407677      0.376570     Biso  1.000000 C
   C42        1.0     0.361138      0.401272      0.355270     Biso  1.000000 C
   C43        1.0     0.436058      0.375201      0.445800     Biso  1.000000 C
   C44        1.0     0.424655      0.405124      0.426740     Biso  1.000000 C
   C45        1.0     0.417314      0.389184      0.496954     Biso  1.000000 C
   C46        1.0     0.357332      0.385243      0.486409     Biso  1.000000 C
   C47        1.0     0.423654      0.360138      0.476870     Biso  1.000000 C
   C48        1.0     0.619857      0.393899      0.362873     Biso  1.000000 C
   C49        1.0     0.710845      0.386086      0.366354     Biso  1.000000 C
   C50        1.0     0.656285      0.382229      0.353901     Biso  1.000000 C
   C51        1.0     0.687445      0.413167      0.372285     Biso  1.000000 C
   C52        1.0     0.635224      0.409437      0.380918     Biso  1.000000 C
   C53        1.0     0.725052      0.402431      0.348153     Biso  1.000000 C
   C54        1.0     0.560110      0.367195      0.485080     Biso  1.000000 C
   C55        1.0     0.723612      0.384949      0.495335     Biso  1.000000 C
   C56        1.0     0.192684      0.462215      0.278261     Biso  1.000000 C
   C57        1.0     0.208666      0.446576      0.282818     Biso  1.000000 C
   C58        1.0     0.140389      0.465423      0.268259     Biso  1.000000 C
   C59        1.0     0.105648      0.453220      0.250897     Biso  1.000000 C
   C60        1.0     0.122064      0.437662      0.256456     Biso  1.000000 C
   C61        1.0     0.173950      0.434193      0.272815     Biso  1.000000 C
   C62        1.0     0.122926      0.482503      0.280655     Biso  1.000000 C
   C63        1.0     0.197413      0.478641      0.479014     Biso  1.000000 C
   C64        1.0     0.140737      0.454777      0.499215     Biso  1.000000 C
   C65        1.0     0.465742      0.452247      0.284367     Biso  1.000000 C
   C66        1.0     0.475895      0.436376      0.270569     Biso  1.000000 C
   C67        1.0     0.334070      0.429121      0.399850     Biso  1.000000 C
   C68        1.0     0.339296      0.496665      0.363279     Biso  1.000000 C
   C69        1.0     0.284777      0.495046      0.340687     Biso  1.000000 C
   C70        1.0     0.489356      0.480624      0.292651     Biso  1.000000 C
   C71        1.0     0.437092      0.486043      0.452504     Biso  1.000000 C
   C72        1.0     0.356402      0.494306      0.481599     Biso  1.000000 C
   C73        1.0     0.339186      0.478275      0.491029     Biso  1.000000 C
   C74        1.0     0.425653      0.469986      0.470669     Biso  1.000000 C
   C75        1.0     0.373810      0.465948      0.489891     Biso  1.000000 C
   C76        1.0     0.699039      0.430526      0.394928     Biso  1.000000 C
   C77        1.0     0.556477      0.459203      0.267026     Biso  1.000000 C
   C78        1.0     0.566236      0.443197      0.255909     Biso  1.000000 C
   C79        1.0     0.505039      0.463482      0.277892     Biso  1.000000 C
   C80        1.0     0.527211      0.431882      0.258800     Biso  1.000000 C
   C81        1.0     0.705224      0.496349      0.368707     Biso  1.000000 C
   C82        1.0     0.651811      0.492570      0.346452     Biso  1.000000 C
   C83        1.0     0.514443      0.452496      0.460421     Biso  1.000000 C
   C84        1.0     0.500317      0.437333      0.490522     Biso  1.000000 C
   C85        1.0     0.560399      0.458526      0.496513     Biso  1.000000 C
   C86        1.0     0.570019      0.476175      0.486882     Biso  1.000000 C
   C87        1.0     0.718203      0.495844      0.499343     Biso  1.000000 C
   C88        1.0     0.197223      0.569446      0.273690     Biso  1.000000 C
   C89        1.0     0.209310      0.553628      0.262700     Biso  1.000000 C
   C90        1.0     0.105817      0.564010      0.260482     Biso  1.000000 C
   C91        1.0     0.118600      0.548157      0.252280     Biso  1.000000 C
   C92        1.0     0.169327      0.542783      0.253487     Biso  1.000000 C
   C93        1.0     0.131831      0.549246      0.490231     Biso  1.000000 C
   C94        1.0     0.137109      0.565517      0.485204     Biso  1.000000 C
   C95        1.0     0.321012      0.525401      0.377923     Biso  1.000000 C
   C96        1.0     0.268864      0.522026      0.386027     Biso  1.000000 C
   C97        1.0     0.357513      0.513373      0.365727     Biso  1.000000 C
   C98        1.0     0.250938      0.506797      0.365186     Biso  1.000000 C
   C99        1.0     0.464953      0.563087      0.264789     Biso  1.000000 C
   C100       1.0     0.475196      0.547006      0.263638     Biso  1.000000 C
   C101       1.0     0.339683      0.542360      0.392414     Biso  1.000000 C
   C102       1.0     0.420325      0.514834      0.455241     Biso  1.000000 C
   C103       1.0     0.496642      0.550447      0.492363     Biso  1.000000 C
   C104       1.0     0.684469      0.523665      0.381261     Biso  1.000000 C
   C105       1.0     0.633034      0.519256      0.395146     Biso  1.000000 C
   C106       1.0     0.720588      0.512723      0.354135     Biso  1.000000 C
   C107       1.0     0.616703      0.504225      0.365937     Biso  1.000000 C
   C108       1.0     0.697995      0.541189      0.396787     Biso  1.000000 C
   C109       1.0     0.556397      0.568603      0.268546     Biso  1.000000 C
   C110       1.0     0.566560      0.552555      0.262959     Biso  1.000000 C
   C111       1.0     0.526037      0.541727      0.261890     Biso  1.000000 C
   C112       1.0     0.511623      0.564803      0.451940     Biso  1.000000 C
   C113       1.0     0.560009      0.570958      0.478006     Biso  1.000000 C
   C114       1.0     0.599964      0.560604      0.498984     Biso  1.000000 C
   C115       1.0     0.129455      0.591627      0.290618     Biso  1.000000 C
   C116       1.0     0.146054      0.574598      0.273580     Biso  1.000000 C
   C117       1.0     0.200960      0.588941      0.479928     Biso  1.000000 C
   C118       1.0     0.186706      0.571654      0.493107     Biso  1.000000 C
   C119       1.0     0.491110      0.591153      0.281498     Biso  1.000000 C
   C120       1.0     0.322310      0.635044      0.370529     Biso  1.000000 C
   C121       1.0     0.270318      0.631279      0.378745     Biso  1.000000 C
   C122       1.0     0.361312      0.623728      0.364969     Biso  1.000000 C
   C123       1.0     0.253859      0.615703      0.361708     Biso  1.000000 C
   C124       1.0     0.344054      0.606874      0.362015     Biso  1.000000 C
   C125       1.0     0.289013      0.604105      0.342410     Biso  1.000000 C
   C126       1.0     0.425192      0.625393      0.454790     Biso  1.000000 C
   C127       1.0     0.438765      0.597335      0.453703     Biso  1.000000 C
   C128       1.0     0.342527      0.588582      0.496613     Biso  1.000000 C
   C129       1.0     0.428993      0.581450      0.474330     Biso  1.000000 C
   C130       1.0     0.356487      0.604943      0.480371     Biso  1.000000 C
   C131       1.0     0.505351      0.573773      0.272394     Biso  1.000000 C
   C132       1.0     0.683157      0.637145      0.374797     Biso  1.000000 C
   C133       1.0     0.633543      0.632476      0.368480     Biso  1.000000 C
   C134       1.0     0.728397      0.626305      0.378143     Biso  1.000000 C
   C135       1.0     0.619121      0.616239      0.368811     Biso  1.000000 C
   C136       1.0     0.709910      0.609109      0.398595     Biso  1.000000 C
   C137       1.0     0.656169      0.605104      0.381200     Biso  1.000000 C
   C138       1.0     0.570857      0.588581      0.476782     Biso  1.000000 C
   C139       1.0     0.785774      0.626999      0.499989     Biso  1.000000 C
   C140       1.0     0.209938      0.664671      0.268695     Biso  1.000000 C
   C141       1.0     0.118077      0.658869      0.269439     Biso  1.000000 C
   C142       1.0     0.169353      0.653942      0.274024     Biso  1.000000 C
   C143       1.0     0.132983      0.702873      0.277538     Biso  1.000000 C
   C144       1.0     0.198369      0.680640      0.264696     Biso  1.000000 C
   C145       1.0     0.147072      0.685467      0.270415     Biso  1.000000 C
   C146       1.0     0.106323      0.674800      0.267189     Biso  1.000000 C
   C147       1.0     0.228264      0.657198      0.491895     Biso  1.000000 C
   C148       1.0     0.178979      0.650799      0.499395     Biso  1.000000 C
   C149       1.0     0.193736      0.683224      0.497622     Biso  1.000000 C
   C150       1.0     0.236381      0.673354      0.489417     Biso  1.000000 C
   C151       1.0     0.475348      0.658131      0.260563     Biso  1.000000 C
   C152       1.0     0.342363      0.651960      0.378073     Biso  1.000000 C
   C153       1.0     0.478246      0.702305      0.302290     Biso  1.000000 C
   C154       1.0     0.460472      0.673637      0.274254     Biso  1.000000 C
   C155       1.0     0.496458      0.658902      0.479824     Biso  1.000000 C
   C156       1.0     0.497202      0.685463      0.287376     Biso  1.000000 C
   C157       1.0     0.502492      0.675047      0.470376     Biso  1.000000 C
   C158       1.0     0.693077      0.654446      0.360348     Biso  1.000000 C
   C159       1.0     0.564292      0.666505      0.277197     Biso  1.000000 C
   C160       1.0     0.527915      0.654695      0.262290     Biso  1.000000 C
   C161       1.0     0.549814      0.682175      0.288963     Biso  1.000000 C
   C162       1.0     0.554205      0.699819      0.491465     Biso  1.000000 C
   C163       1.0     0.550247      0.681871      0.488639     Biso  1.000000 C
   C164       1.0     0.410443      0.735235      0.488095     Biso  1.000000 C
   C165       1.0     0.056975      0.275298      0.601421     Biso  1.000000 C
   C166       1.0     0.100839      0.265781      0.608092     Biso  1.000000 C
   C167       1.0     0.146739      0.271940      0.644613     Biso  1.000000 C
   C168       1.0     0.428546      0.282563      0.612864     Biso  1.000000 C
   C169       1.0     0.465826      0.270159      0.593770     Biso  1.000000 C
   C170       1.0     0.271491      0.275599      0.665601     Biso  1.000000 C
   C171       1.0     0.303387      0.263353      0.699566     Biso  1.000000 C
   C172       1.0     0.378059      0.280067      0.639142     Biso  1.000000 C
   C173       1.0     0.361601      0.265242      0.687544     Biso  1.000000 C
   C174       1.0     0.513828      0.270393      0.634664     Biso  1.000000 C
   C175       1.0     0.646038      0.275710      0.668837     Biso  1.000000 C
   C176       1.0     0.685457      0.264717      0.682990     Biso  1.000000 C
   C177       1.0     0.737354      0.269188      0.677826     Biso  1.000000 C
   C178       1.0     0.528462      0.283996      0.684708     Biso  1.000000 C
   C179       1.0     0.750080      0.284779      0.661743     Biso  1.000000 C
   C180       1.0     0.059754      0.290732      0.633215     Biso  1.000000 C
   C181       1.0     0.108356      0.312836      0.715641     Biso  1.000000 C
   C182       1.0     0.105344      0.296335      0.673617     Biso  1.000000 C
   C183       1.0     0.150432      0.287453      0.674657     Biso  1.000000 C
   C184       1.0     0.225830      0.324220      0.501231     Biso  1.000000 C
   C185       1.0     0.167427      0.348716      0.936424     Biso  1.000000 C
   C186       1.0     0.216736      0.355034      0.948824     Biso  1.000000 C
   C187       1.0     0.236118      0.340231      0.505275     Biso  1.000000 C
   C188       1.0     0.169731      0.338653      0.717341     Biso  1.000000 C
   C189       1.0     0.210590      0.327915      0.723962     Biso  1.000000 C
   C190       1.0     0.182586      0.354412      0.714572     Biso  1.000000 C
   C191       1.0     0.451399      0.297967      0.624506     Biso  1.000000 C
   C192       1.0     0.495565      0.296974      0.678164     Biso  1.000000 C
   C193       1.0     0.290154      0.290028      0.642144     Biso  1.000000 C
   C194       1.0     0.349060      0.311344      0.618246     Biso  1.000000 C
   C195       1.0     0.345164      0.294021      0.661631     Biso  1.000000 C
   C196       1.0     0.375026      0.344816      0.884544     Biso  1.000000 C
   C197       1.0     0.399576      0.335889      0.815239     Biso  1.000000 C
   C198       1.0     0.430370      0.344089      0.751114     Biso  1.000000 C
   C199       1.0     0.275120      0.348149      0.741164     Biso  1.000000 C
   C200       1.0     0.261824      0.332307      0.737194     Biso  1.000000 C
   C201       1.0     0.493309      0.357077      0.943807     Biso  1.000000 C
   C202       1.0     0.503823      0.313668      0.716406     Biso  1.000000 C
   C203       1.0     0.657820      0.291524      0.656275     Biso  1.000000 C
   C204       1.0     0.728428      0.312705      0.652201     Biso  1.000000 C
   C205       1.0     0.709929      0.295709      0.656459     Biso  1.000000 C
   C206       1.0     0.587075      0.323701      0.507406     Biso  1.000000 C
   C207       1.0     0.537587      0.317159      0.508550     Biso  1.000000 C
   C208       1.0     0.740423      0.349181      0.848390     Biso  1.000000 C
   C209       1.0     0.534724      0.346828      0.933574     Biso  1.000000 C
   C210       1.0     0.584371      0.353238      0.936002     Biso  1.000000 C
   C211       1.0     0.591430      0.340063      0.507817     Biso  1.000000 C
   C212       1.0     0.651999      0.348568      0.735524     Biso  1.000000 C
   C213       1.0     0.550289      0.337464      0.741376     Biso  1.000000 C
   C214       1.0     0.642865      0.332450      0.733165     Biso  1.000000 C
   C215       1.0     0.592214      0.327087      0.735070     Biso  1.000000 C
   C216       1.0     0.558114      0.353350      0.728946     Biso  1.000000 C
   C217       1.0     0.777002      0.338943      0.810243     Biso  1.000000 C
   C218       1.0     0.821031      0.345605      0.770528     Biso  1.000000 C
   C219       1.0     0.049828      0.386150      0.613673     Biso  1.000000 C
   C220       1.0     0.093923      0.376702      0.616622     Biso  1.000000 C
   C221       1.0     0.141681      0.383751      0.633941     Biso  1.000000 C
   C222       1.0     0.136773      0.374422      0.890300     Biso  1.000000 C
   C223       1.0     0.127612      0.358473      0.905671     Biso  1.000000 C
   C224       1.0     0.196924      0.397890      0.888706     Biso  1.000000 C
   C225       1.0     0.184938      0.380745      0.912778     Biso  1.000000 C
   C226       1.0     0.226154      0.370987      0.937241     Biso  1.000000 C
   C227       1.0     0.052690      0.401779      0.642759     Biso  1.000000 C
   C228       1.0     0.105054      0.425396      0.695442     Biso  1.000000 C
   C229       1.0     0.100434      0.408204      0.665346     Biso  1.000000 C
   C230       1.0     0.145493      0.399373      0.661882     Biso  1.000000 C
   C231       1.0     0.233929      0.358502      0.731517     Biso  1.000000 C
   C232       1.0     0.234698      0.375778      0.760260     Biso  1.000000 C
   C233       1.0     0.445299      0.391113      0.586120     Biso  1.000000 C
   C234       1.0     0.484604      0.380960      0.610776     Biso  1.000000 C
   C235       1.0     0.284219      0.390476      0.618743     Biso  1.000000 C
   C236       1.0     0.315186      0.380296      0.681884     Biso  1.000000 C
   C237       1.0     0.382916      0.404316      0.704686     Biso  1.000000 C
   C238       1.0     0.363353      0.374778      0.672045     Biso  1.000000 C
   C239       1.0     0.381218      0.361144      0.891023     Biso  1.000000 C
   C240       1.0     0.432071      0.385990      0.850820     Biso  1.000000 C
   C241       1.0     0.419194      0.368525      0.837573     Biso  1.000000 C
   C242       1.0     0.442906      0.359814      0.766260     Biso  1.000000 C
   C243       1.0     0.341388      0.369652      0.516300     Biso  1.000000 C
   C244       1.0     0.374395      0.357248      0.517352     Biso  1.000000 C
   C245       1.0     0.438261      0.404185      0.656991     Biso  1.000000 C
   C246       1.0     0.498758      0.426390      0.706462     Biso  1.000000 C
   C247       1.0     0.488428      0.409183      0.698393     Biso  1.000000 C
   C248       1.0     0.289045      0.405740      0.639191     Biso  1.000000 C
   C249       1.0     0.337960      0.411476      0.679588     Biso  1.000000 C
   C250       1.0     0.741477      0.357341      0.526992     Biso  1.000000 C
   C251       1.0     0.501693      0.373178      0.956502     Biso  1.000000 C
   C252       1.0     0.528337      0.385543      0.661789     Biso  1.000000 C
   C253       1.0     0.657007      0.389124      0.639075     Biso  1.000000 C
   C254       1.0     0.693886      0.378575      0.672664     Biso  1.000000 C
   C255       1.0     0.743473      0.383688      0.693833     Biso  1.000000 C
   C256       1.0     0.555048      0.396790      0.900226     Biso  1.000000 C
   C257       1.0     0.549577      0.379764      0.934326     Biso  1.000000 C
   C258       1.0     0.591554      0.369469      0.935431     Biso  1.000000 C
   C259       1.0     0.610171      0.374699      0.776427     Biso  1.000000 C
   C260       1.0     0.609284      0.358456      0.731417     Biso  1.000000 C
   C261       1.0     0.705905      0.369199      0.520319     Biso  1.000000 C
   C262       1.0     0.533686      0.401253      0.690560     Biso  1.000000 C
   C263       1.0     0.669614      0.404982      0.642099     Biso  1.000000 C
   C264       1.0     0.730553      0.427156      0.652754     Biso  1.000000 C
   C265       1.0     0.718797      0.409795      0.670399     Biso  1.000000 C
   C266       1.0     0.539760      0.426813      0.512245     Biso  1.000000 C
   C267       1.0     0.749522      0.365269      0.853820     Biso  1.000000 C
   C268       1.0     0.758550      0.399415      0.692152     Biso  1.000000 C
   C269       1.0     0.816079      0.387637      0.856271     Biso  1.000000 C
   C270       1.0     0.796686      0.371528      0.823809     Biso  1.000000 C
   C271       1.0     0.830320      0.361752      0.774551     Biso  1.000000 C
   C272       1.0     0.776979      0.388920      0.513605     Biso  1.000000 C
   C273       1.0     0.811653      0.376937      0.525999     Biso  1.000000 C
   C274       1.0     0.794174      0.361376      0.522696     Biso  1.000000 C
   C275       1.0     0.798060      0.405483      0.512965     Biso  1.000000 C
   C276       1.0     0.171853      0.460134      0.940696     Biso  1.000000 C
   C277       1.0     0.190175      0.461212      0.501039     Biso  1.000000 C
   C278       1.0     0.234080      0.452144      0.515609     Biso  1.000000 C
   C279       1.0     0.136208      0.438609      0.507587     Biso  1.000000 C
   C280       1.0     0.228694      0.435938      0.525147     Biso  1.000000 C
   C281       1.0     0.179654      0.429251      0.523176     Biso  1.000000 C
   C282       1.0     0.179569      0.450107      0.726588     Biso  1.000000 C
   C283       1.0     0.222097      0.440105      0.733762     Biso  1.000000 C
   C284       1.0     0.051633      0.495333      0.623367     Biso  1.000000 C
   C285       1.0     0.096587      0.486422      0.614555     Biso  1.000000 C
   C286       1.0     0.144876      0.493293      0.629190     Biso  1.000000 C
   C287       1.0     0.141685      0.485527      0.888594     Biso  1.000000 C
   C288       1.0     0.131885      0.469787      0.909049     Biso  1.000000 C
   C289       1.0     0.190543      0.491514      0.908399     Biso  1.000000 C
   C290       1.0     0.232663      0.481725      0.927100     Biso  1.000000 C
   C291       1.0     0.222422      0.465930      0.942796     Biso  1.000000 C
   C292       1.0     0.187510      0.466155      0.721789     Biso  1.000000 C
   C293       1.0     0.234027      0.489934      0.748054     Biso  1.000000 C
   C294       1.0     0.237071      0.472231      0.731008     Biso  1.000000 C
   C295       1.0     0.338771      0.429259      0.656500     Biso  1.000000 C
   C296       1.0     0.370778      0.455090      0.857976     Biso  1.000000 C
   C297       1.0     0.406605      0.447636      0.799617     Biso  1.000000 C
   C298       1.0     0.444787      0.456790      0.757021     Biso  1.000000 C
   C299       1.0     0.280497      0.462719      0.737291     Biso  1.000000 C
   C300       1.0     0.270986      0.446632      0.746371     Biso  1.000000 C
   C301       1.0     0.426720      0.496222      0.617011     Biso  1.000000 C
   C302       1.0     0.475442      0.487980      0.619846     Biso  1.000000 C
   C303       1.0     0.348978      0.496227      0.680668     Biso  1.000000 C
   C304       1.0     0.382953      0.483483      0.649421     Biso  1.000000 C
   C305       1.0     0.496252      0.471464      0.952001     Biso  1.000000 C
   C306       1.0     0.370564      0.471438      0.868797     Biso  1.000000 C
   C307       1.0     0.419411      0.497320      0.868908     Biso  1.000000 C
   C308       1.0     0.414033      0.479921      0.840917     Biso  1.000000 C
   C309       1.0     0.450378      0.472555      0.782469     Biso  1.000000 C
   C310       1.0     0.414129      0.498220      0.511857     Biso  1.000000 C
   C311       1.0     0.503834      0.487621      0.948183     Biso  1.000000 C
   C312       1.0     0.739838      0.461298      0.854914     Biso  1.000000 C
   C313       1.0     0.539293      0.461693      0.946904     Biso  1.000000 C
   C314       1.0     0.599372      0.448361      0.526599     Biso  1.000000 C
   C315       1.0     0.590676      0.432235      0.518196     Biso  1.000000 C
   C316       1.0     0.657602      0.458439      0.731217     Biso  1.000000 C
   C317       1.0     0.555376      0.449134      0.754596     Biso  1.000000 C
   C318       1.0     0.644130      0.442616      0.719051     Biso  1.000000 C
   C319       1.0     0.593946      0.437892      0.738301     Biso  1.000000 C
   C320       1.0     0.521913      0.494738      0.637441     Biso  1.000000 C
   C321       1.0     0.690039      0.490577      0.664294     Biso  1.000000 C
   C322       1.0     0.739788      0.494943      0.685386     Biso  1.000000 C
   C323       1.0     0.748677      0.477425      0.855714     Biso  1.000000 C
   C324       1.0     0.552334      0.494321      0.930478     Biso  1.000000 C
   C325       1.0     0.595239      0.484704      0.945696     Biso  1.000000 C
   C326       1.0     0.588372      0.468431      0.951577     Biso  1.000000 C
   C327       1.0     0.616269      0.485777      0.774905     Biso  1.000000 C
   C328       1.0     0.616980      0.469001      0.736363     Biso  1.000000 C
   C329       1.0     0.565105      0.464674      0.729740     Biso  1.000000 C
   C330       1.0     0.704172      0.479640      0.521021     Biso  1.000000 C
   C331       1.0     0.741292      0.468820      0.542277     Biso  1.000000 C
   C332       1.0     0.772220      0.451168      0.804768     Biso  1.000000 C
   C333       1.0     0.815801      0.457134      0.759241     Biso  1.000000 C
   C334       1.0     0.794764      0.482931      0.817791     Biso  1.000000 C
   C335       1.0     0.827438      0.473057      0.766221     Biso  1.000000 C
   C336       1.0     0.807011      0.489440      0.532239     Biso  1.000000 C
   C337       1.0     0.793247      0.473598      0.539998     Biso  1.000000 C
   C338       1.0     0.175308      0.539893      0.505077     Biso  1.000000 C
   C339       1.0     0.054836      0.510947      0.651546     Biso  1.000000 C
   C340       1.0     0.106957      0.534084      0.698901     Biso  1.000000 C
   C341       1.0     0.103790      0.516993      0.667300     Biso  1.000000 C
   C342       1.0     0.149924      0.509026      0.652661     Biso  1.000000 C
   C343       1.0     0.197318      0.509305      0.902400     Biso  1.000000 C
   C344       1.0     0.172015      0.569474      0.947929     Biso  1.000000 C
   C345       1.0     0.230600      0.562419      0.503374     Biso  1.000000 C
   C346       1.0     0.224705      0.546258      0.510215     Biso  1.000000 C
   C347       1.0     0.174913      0.558496      0.727133     Biso  1.000000 C
   C348       1.0     0.216523      0.548132      0.735408     Biso  1.000000 C
   C349       1.0     0.308822      0.501759      0.627929     Biso  1.000000 C
   C350       1.0     0.431077      0.511390      0.696134     Biso  1.000000 C
   C351       1.0     0.481319      0.519336      0.675360     Biso  1.000000 C
   C352       1.0     0.297090      0.517623      0.648369     Biso  1.000000 C
   C353       1.0     0.337549      0.527660      0.680015     Biso  1.000000 C
   C354       1.0     0.389092      0.523435      0.692644     Biso  1.000000 C
   C355       1.0     0.495738      0.536315      0.688539     Biso  1.000000 C
   C356       1.0     0.327598      0.545476      0.664679     Biso  1.000000 C
   C357       1.0     0.377177      0.567592      0.882029     Biso  1.000000 C
   C358       1.0     0.405486      0.558870      0.816048     Biso  1.000000 C
   C359       1.0     0.439354      0.566933      0.757118     Biso  1.000000 C
   C360       1.0     0.265465      0.554304      0.752563     Biso  1.000000 C
   C361       1.0     0.277697      0.570033      0.733949     Biso  1.000000 C
   C362       1.0     0.650726      0.501626      0.649288     Biso  1.000000 C
   C363       1.0     0.523295      0.511585      0.645474     Biso  1.000000 C
   C364       1.0     0.666020      0.516845      0.668652     Biso  1.000000 C
   C365       1.0     0.716162      0.521104      0.693444     Biso  1.000000 C
   C366       1.0     0.556093      0.511425      0.897211     Biso  1.000000 C
   C367       1.0     0.725136      0.538282      0.673218     Biso  1.000000 C
   C368       1.0     0.737453      0.569491      0.850744     Biso  1.000000 C
   C369       1.0     0.538052      0.570755      0.958003     Biso  1.000000 C
   C370       1.0     0.587236      0.544793      0.510314     Biso  1.000000 C
   C371       1.0     0.535941      0.539878      0.513503     Biso  1.000000 C
   C372       1.0     0.550853      0.561379      0.754294     Biso  1.000000 C
   C373       1.0     0.639323      0.554791      0.726027     Biso  1.000000 C
   C374       1.0     0.588480      0.549924      0.737277     Biso  1.000000 C
   C375       1.0     0.652706      0.570612      0.735482     Biso  1.000000 C
   C376       1.0     0.804204      0.500427      0.834503     Biso  1.000000 C
   C377       1.0     0.762931      0.510702      0.708968     Biso  1.000000 C
   C378       1.0     0.770413      0.500951      0.518070     Biso  1.000000 C
   C379       1.0     0.785899      0.518120      0.515791     Biso  1.000000 C
   C380       1.0     0.774712      0.559890      0.809079     Biso  1.000000 C
   C381       1.0     0.815963      0.566756      0.761561     Biso  1.000000 C
   C382       1.0     0.096517      0.599809      0.611123     Biso  1.000000 C
   C383       1.0     0.136779      0.594347      0.900469     Biso  1.000000 C
   C384       1.0     0.129851      0.578418      0.918808     Biso  1.000000 C
   C385       1.0     0.185077      0.600999      0.917869     Biso  1.000000 C
   C386       1.0     0.228040      0.592206      0.944967     Biso  1.000000 C
   C387       1.0     0.220817      0.576179      0.957817     Biso  1.000000 C
   C388       1.0     0.183686      0.574508      0.723182     Biso  1.000000 C
   C389       1.0     0.058161      0.624396      0.657971     Biso  1.000000 C
   C390       1.0     0.052640      0.609004      0.625761     Biso  1.000000 C
   C391       1.0     0.107112      0.630542      0.673467     Biso  1.000000 C
   C392       1.0     0.151025      0.621646      0.654337     Biso  1.000000 C
   C393       1.0     0.145547      0.605977      0.627552     Biso  1.000000 C
   C394       1.0     0.193476      0.618366      0.895507     Biso  1.000000 C
   C395       1.0     0.234132      0.597202      0.753281     Biso  1.000000 C
   C396       1.0     0.234658      0.579790      0.728546     Biso  1.000000 C
   C397       1.0     0.478563      0.599762      0.620124     Biso  1.000000 C
   C398       1.0     0.340378      0.606548      0.698832     Biso  1.000000 C
   C399       1.0     0.496679      0.581191      0.957352     Biso  1.000000 C
   C400       1.0     0.379684      0.583983      0.883590     Biso  1.000000 C
   C401       1.0     0.418318      0.591665      0.833070     Biso  1.000000 C
   C402       1.0     0.448609      0.582944      0.770743     Biso  1.000000 C
   C403       1.0     0.378838      0.576830      0.500734     Biso  1.000000 C
   C404       1.0     0.384660      0.597099      0.666950     Biso  1.000000 C
   C405       1.0     0.433448      0.623927      0.671428     Biso  1.000000 C
   C406       1.0     0.429702      0.608080      0.619690     Biso  1.000000 C
   C407       1.0     0.483154      0.630296      0.691223     Biso  1.000000 C
   C408       1.0     0.300201      0.628334      0.642574     Biso  1.000000 C
   C409       1.0     0.308726      0.611994      0.625436     Biso  1.000000 C
   C410       1.0     0.342507      0.638763      0.665888     Biso  1.000000 C
   C411       1.0     0.389740      0.632505      0.672025     Biso  1.000000 C
   C412       1.0     0.423001      0.609626      0.839798     Biso  1.000000 C
   C413       1.0     0.412848      0.609264      0.509562     Biso  1.000000 C
   C414       1.0     0.502995      0.597189      0.941525     Biso  1.000000 C
   C415       1.0     0.691325      0.600921      0.671130     Biso  1.000000 C
   C416       1.0     0.741943      0.585785      0.846952     Biso  1.000000 C
   C417       1.0     0.552250      0.602914      0.922892     Biso  1.000000 C
   C418       1.0     0.594808      0.592872      0.933341     Biso  1.000000 C
   C419       1.0     0.587741      0.576778      0.947516     Biso  1.000000 C
   C420       1.0     0.614789      0.598744      0.772981     Biso  1.000000 C
   C421       1.0     0.613144      0.581583      0.741164     Biso  1.000000 C
   C422       1.0     0.561577      0.577259      0.745081     Biso  1.000000 C
   C423       1.0     0.715525      0.588474      0.527686     Biso  1.000000 C
   C424       1.0     0.741133      0.605586      0.685722     Biso  1.000000 C
   C425       1.0     0.527393      0.622566      0.669430     Biso  1.000000 C
   C426       1.0     0.525000      0.606634      0.641689     Biso  1.000000 C
   C427       1.0     0.666346      0.627810      0.676710     Biso  1.000000 C
   C428       1.0     0.653438      0.612398      0.655279     Biso  1.000000 C
   C429       1.0     0.716592      0.632162      0.695682     Biso  1.000000 C
   C430       1.0     0.558706      0.620028      0.891590     Biso  1.000000 C
   C431       1.0     0.725559      0.605360      0.509455     Biso  1.000000 C
   C432       1.0     0.755007      0.578053      0.537039     Biso  1.000000 C
   C433       1.0     0.761281      0.621388      0.715145     Biso  1.000000 C
   C434       1.0     0.787907      0.592421      0.813857     Biso  1.000000 C
   C435       1.0     0.821917      0.583079      0.761318     Biso  1.000000 C
   C436       1.0     0.806892      0.583083      0.533465     Biso  1.000000 C
   C437       1.0     0.819372      0.599059      0.532111     Biso  1.000000 C
   C438       1.0     0.799122      0.609449      0.842045     Biso  1.000000 C
   C439       1.0     0.780424      0.609828      0.520745     Biso  1.000000 C
   C440       1.0     0.136278      0.660744      0.501312     Biso  1.000000 C
   C441       1.0     0.111069      0.647905      0.701215     Biso  1.000000 C
   C442       1.0     0.223594      0.663478      0.742441     Biso  1.000000 C
   C443       1.0     0.138434      0.708859      0.886694     Biso  1.000000 C
   C444       1.0     0.124736      0.693784      0.916039     Biso  1.000000 C
   C445       1.0     0.189222      0.714031      0.894574     Biso  1.000000 C
   C446       1.0     0.163995      0.683206      0.938605     Biso  1.000000 C
   C447       1.0     0.228572      0.703820      0.921284     Biso  1.000000 C
   C448       1.0     0.214842      0.688520      0.945400     Biso  1.000000 C
   C449       1.0     0.200438      0.700852      0.514734     Biso  1.000000 C
   C450       1.0     0.144092      0.676911      0.503054     Biso  1.000000 C
   C451       1.0     0.200606      0.690595      0.720114     Biso  1.000000 C
   C452       1.0     0.185820      0.675096      0.734378     Biso  1.000000 C
   C453       1.0     0.331275      0.655891      0.636037     Biso  1.000000 C
   C454       1.0     0.275614      0.667485      0.739238     Biso  1.000000 C
   C455       1.0     0.498549      0.706753      0.918451     Biso  1.000000 C
   C456       1.0     0.489104      0.691069      0.939582     Biso  1.000000 C
   C457       1.0     0.375730      0.698448      0.845319     Biso  1.000000 C
   C458       1.0     0.374435      0.682164      0.855304     Biso  1.000000 C
   C459       1.0     0.412097      0.704688      0.783290     Biso  1.000000 C
   C460       1.0     0.404787      0.672459      0.798911     Biso  1.000000 C
   C461       1.0     0.444577      0.695400      0.728544     Biso  1.000000 C
   C462       1.0     0.438373      0.679171      0.733091     Biso  1.000000 C
   C463       1.0     0.269566      0.711047      0.697055     Biso  1.000000 C
   C464       1.0     0.252696      0.693908      0.706359     Biso  1.000000 C
   C465       1.0     0.290936      0.682540      0.712345     Biso  1.000000 C
   C466       1.0     0.442195      0.710298      0.536591     Biso  1.000000 C
   C467       1.0     0.341940      0.697231      0.549869     Biso  1.000000 C
   C468       1.0     0.435596      0.694650      0.559297     Biso  1.000000 C
   C469       1.0     0.386199      0.688283      0.565393     Biso  1.000000 C
   C470       1.0     0.347230      0.713193      0.532710     Biso  1.000000 C
   C471       1.0     0.502219      0.647064      0.697992     Biso  1.000000 C
   C472       1.0     0.719533      0.648474      0.656120     Biso  1.000000 C
   C473       1.0     0.587050      0.655957      0.513318     Biso  1.000000 C
   C474       1.0     0.538304      0.649259      0.502751     Biso  1.000000 C
   C475       1.0     0.643387      0.667943      0.717453     Biso  1.000000 C
   C476       1.0     0.594474      0.663490      0.747238     Biso  1.000000 C
   C477       1.0     0.738412      0.698054      0.825999     Biso  1.000000 C
   C478       1.0     0.738810      0.681818      0.838176     Biso  1.000000 C
   C479       1.0     0.549180      0.711703      0.905718     Biso  1.000000 C
   C480       1.0     0.529767      0.680673      0.956081     Biso  1.000000 C
   C481       1.0     0.590273      0.701942      0.929910     Biso  1.000000 C
   C482       1.0     0.580361      0.686306      0.952933     Biso  1.000000 C
   C483       1.0     0.592709      0.672147      0.502398     Biso  1.000000 C
   C484       1.0     0.635124      0.711556      0.718774     Biso  1.000000 C
   C485       1.0     0.618626      0.694387      0.724828     Biso  1.000000 C
   C486       1.0     0.568886      0.690515      0.754070     Biso  1.000000 C
   C487       1.0     0.656844      0.683540      0.703824     Biso  1.000000 C
   C488       1.0     0.557501      0.674800      0.770242     Biso  1.000000 C
   C489       1.0     0.693015      0.698184      0.529611     Biso  1.000000 C
   C490       1.0     0.732969      0.687244      0.519574     Biso  1.000000 C
   C491       1.0     0.702166      0.714219      0.534545     Biso  1.000000 C
   C492       1.0     0.779659      0.705100      0.779895     Biso  1.000000 C
   C493       1.0     0.779632      0.672749      0.804216     Biso  1.000000 C
   C494       1.0     0.819507      0.696107      0.742040     Biso  1.000000 C
   C495       1.0     0.819302      0.679840      0.752651     Biso  1.000000 C
   C496       1.0     0.794214      0.708223      0.518939     Biso  1.000000 C
   C497       1.0     0.784390      0.692156      0.519852     Biso  1.000000 C
   C498       1.0     0.200804      0.731283      0.872446     Biso  1.000000 C
   C499       1.0     0.422506      0.722244      0.770637     Biso  1.000000 C
   C500       1.0     0.397334      0.718490      0.517833     Biso  1.000000 C
   C501       1.0     0.556543      0.728368      0.867720     Biso  1.000000 C
   C502       1.0     0.780032      0.723082      0.780585     Biso  1.000000 C
   C503       1.0     0.753440      0.718777      0.524422     Biso  1.000000 C
   C504       1.0     0.766260      0.735976      0.505470     Biso  1.000000 C
   Cu1        1.0     0.096752      0.766906      0.124953     Biso  1.000000 Cu
   Cu2        1.0     0.025374      0.766902      0.250225     Biso  1.000000 Cu
   Cu3        1.0     0.097147      0.767070      0.375723     Biso  1.000000 Cu
   Cu4        1.0     0.168178      0.766939      0.250002     Biso  1.000000 Cu
   Cu5        1.0     0.239618      0.766908      0.124958     Biso  1.000000 Cu
   Cu6        1.0     0.239244      0.767127      0.375569     Biso  1.000000 Cu
   Cu7        1.0     0.453913      0.766910      0.250007     Biso  1.000000 Cu
   Cu8        1.0     0.453929      0.766908      0.000010     Biso  1.000000 Cu
   Cu9        1.0     0.382467      0.766910      0.125021     Biso  1.000000 Cu
   Cu10       1.0     0.310968      0.766907      0.250148     Biso  1.000000 Cu
   Cu11       1.0     0.382508      0.766913      0.374998     Biso  1.000000 Cu
   Cu12       1.0     0.311061      0.766985      0.499992     Biso  1.000000 Cu
   Cu13       1.0     0.454081      0.767071      0.499969     Biso  1.000000 Cu
   Cu14       1.0     0.525335      0.766910      0.124999     Biso  1.000000 Cu
   Cu15       1.0     0.668171      0.766908      0.124951     Biso  1.000000 Cu
   Cu16       1.0     0.525340      0.766909      0.374989     Biso  1.000000 Cu
   Cu17       1.0     0.596757      0.766911      0.249982     Biso  1.000000 Cu
   Cu18       1.0     0.668197      0.766915      0.375007     Biso  1.000000 Cu
   Cu19       1.0     0.596733      0.766913      0.000022     Biso  1.000000 Cu
   Cu20       1.0     0.739577      0.766924      0.249898     Biso  1.000000 Cu
   Cu21       1.0     0.811052      0.766915      0.125014     Biso  1.000000 Cu
   Cu22       1.0     0.811201      0.767320      0.374503     Biso  1.000000 Cu
   Cu23       1.0     0.882569      0.766946      0.249847     Biso  1.000000 Cu
   Cu24       1.0     0.953660      0.767014      0.375439     Biso  1.000000 Cu
   Cu25       1.0     0.953949      0.766904      0.124939     Biso  1.000000 Cu
   Cu26       1.0     0.025331      0.788763      0.124895     Biso  1.000000 Cu
   Cu27       1.0     0.168192      0.788775      0.125034     Biso  1.000000 Cu
   Cu28       1.0     0.096601      0.788789      0.249652     Biso  1.000000 Cu
   Cu29       1.0     0.025290      0.788802      0.374662     Biso  1.000000 Cu
   Cu30       1.0     0.168138      0.789237      0.372669     Biso  1.000000 Cu
   Cu31       1.0     0.096728      0.810670      0.124882     Biso  1.000000 Cu
   Cu32       1.0     0.025337      0.832677      0.124963     Biso  1.000000 Cu
   Cu33       1.0     0.168193      0.832697      0.124842     Biso  1.000000 Cu
   Cu34       1.0     0.025338      0.854724      0.000002     Biso  1.000000 Cu
   Cu35       1.0     0.096763      0.854727      0.124979     Biso  1.000000 Cu
   Cu36       1.0     0.168194      0.854732      0.000012     Biso  1.000000 Cu
   Cu37       1.0     0.025325      0.810680      0.249830     Biso  1.000000 Cu
   Cu38       1.0     0.096746      0.832698      0.249877     Biso  1.000000 Cu
   Cu39       1.0     0.096631      0.810760      0.374587     Biso  1.000000 Cu
   Cu40       1.0     0.025328      0.832700      0.374918     Biso  1.000000 Cu
   Cu41       1.0     0.168186      0.810784      0.249255     Biso  1.000000 Cu
   Cu42       1.0     0.168193      0.832676      0.374979     Biso  1.000000 Cu
   Cu43       1.0     0.025338      0.854728      0.249978     Biso  1.000000 Cu
   Cu44       1.0     0.096770      0.854725      0.374994     Biso  1.000000 Cu
   Cu45       1.0     0.168195      0.854725      0.249991     Biso  1.000000 Cu
   Cu46       1.0     0.096752      0.832677      0.000011     Biso  1.000000 Cu
   Cu47       1.0     0.168183      0.810662      0.000021     Biso  1.000000 Cu
   Cu48       1.0     0.025339      0.854725      0.499997     Biso  1.000000 Cu
   Cu49       1.0     0.168198      0.854723      0.499999     Biso  1.000000 Cu
   Cu50       1.0     0.096780      0.832682      0.499992     Biso  1.000000 Cu
   Cu51       1.0     0.168160      0.810662      0.499971     Biso  1.000000 Cu
   Cu52       1.0     0.025336      0.810662      0.000008     Biso  1.000000 Cu
   Cu53       1.0     0.025252      0.810778      0.499996     Biso  1.000000 Cu
   Cu54       1.0     0.239780      0.788803      0.249648     Biso  1.000000 Cu
   Cu55       1.0     0.240550      0.789276      0.499654     Biso  1.000000 Cu
   Cu56       1.0     0.239665      0.810671      0.124879     Biso  1.000000 Cu
   Cu57       1.0     0.239629      0.854729      0.124986     Biso  1.000000 Cu
   Cu58       1.0     0.239648      0.832699      0.249863     Biso  1.000000 Cu
   Cu59       1.0     0.239757      0.810773      0.374494     Biso  1.000000 Cu
   Cu60       1.0     0.239624      0.854723      0.374997     Biso  1.000000 Cu
   Cu61       1.0     0.239638      0.832684      0.000053     Biso  1.000000 Cu
   Cu62       1.0     0.239625      0.832673      0.499994     Biso  1.000000 Cu
   Cu63       1.0     0.453917      0.788769      0.124999     Biso  1.000000 Cu
   Cu64       1.0     0.453920      0.788778      0.374935     Biso  1.000000 Cu
   Cu65       1.0     0.453912      0.832670      0.124998     Biso  1.000000 Cu
   Cu66       1.0     0.453918      0.810662      0.249982     Biso  1.000000 Cu
   Cu67       1.0     0.453917      0.832672      0.374990     Biso  1.000000 Cu
   Cu68       1.0     0.453911      0.854721      0.249997     Biso  1.000000 Cu
   Cu69       1.0     0.453917      0.810662      0.000009     Biso  1.000000 Cu
   Cu70       1.0     0.453911      0.854721      0.000001     Biso  1.000000 Cu
   Cu71       1.0     0.453915      0.854722      0.499999     Biso  1.000000 Cu
   Cu72       1.0     0.453923      0.810660      0.499984     Biso  1.000000 Cu
   Cu73       1.0     0.311087      0.788767      0.124941     Biso  1.000000 Cu
   Cu74       1.0     0.382507      0.788768      0.249940     Biso  1.000000 Cu
   Cu75       1.0     0.311223      0.788803      0.374713     Biso  1.000000 Cu
   Cu76       1.0     0.382490      0.832673      0.000011     Biso  1.000000 Cu
   Cu77       1.0     0.382498      0.810662      0.124990     Biso  1.000000 Cu
   Cu78       1.0     0.311069      0.832675      0.124983     Biso  1.000000 Cu
   Cu79       1.0     0.311058      0.854724      0.000008     Biso  1.000000 Cu
   Cu80       1.0     0.382484      0.854721      0.124998     Biso  1.000000 Cu
   Cu81       1.0     0.311112      0.810675      0.249879     Biso  1.000000 Cu
   Cu82       1.0     0.382494      0.832674      0.249980     Biso  1.000000 Cu
   Cu83       1.0     0.382531      0.810670      0.374923     Biso  1.000000 Cu
   Cu84       1.0     0.311090      0.832692      0.374928     Biso  1.000000 Cu
   Cu85       1.0     0.311059      0.854725      0.249984     Biso  1.000000 Cu
   Cu86       1.0     0.382487      0.854724      0.374992     Biso  1.000000 Cu
   Cu87       1.0     0.382513      0.788770      0.000035     Biso  1.000000 Cu
   Cu88       1.0     0.311086      0.810667      0.000047     Biso  1.000000 Cu
   Cu89       1.0     0.382520      0.788793      0.499884     Biso  1.000000 Cu
   Cu90       1.0     0.311054      0.854723      0.499997     Biso  1.000000 Cu
   Cu91       1.0     0.311318      0.810755      0.499904     Biso  1.000000 Cu
   Cu92       1.0     0.382526      0.832685      0.499985     Biso  1.000000 Cu
   Cu93       1.0     0.596749      0.788772      0.124996     Biso  1.000000 Cu
   Cu94       1.0     0.525336      0.788770      0.249990     Biso  1.000000 Cu
   Cu95       1.0     0.668132      0.788773      0.249894     Biso  1.000000 Cu
   Cu96       1.0     0.596740      0.788771      0.374951     Biso  1.000000 Cu
   Cu97       1.0     0.525336      0.810661      0.124997     Biso  1.000000 Cu
   Cu98       1.0     0.668183      0.832673      0.000011     Biso  1.000000 Cu
   Cu99       1.0     0.668169      0.810665      0.124981     Biso  1.000000 Cu
   Cu100      1.0     0.596761      0.832671      0.124997     Biso  1.000000 Cu
   Cu101      1.0     0.525337      0.854721      0.125000     Biso  1.000000 Cu
   Cu102      1.0     0.668190      0.854722      0.124997     Biso  1.000000 Cu
   Cu103      1.0     0.525337      0.832670      0.249995     Biso  1.000000 Cu
   Cu104      1.0     0.525336      0.810662      0.374989     Biso  1.000000 Cu
   Cu105      1.0     0.596751      0.810662      0.249982     Biso  1.000000 Cu
   Cu106      1.0     0.668178      0.832676      0.249976     Biso  1.000000 Cu
   Cu107      1.0     0.668123      0.810680      0.374906     Biso  1.000000 Cu
   Cu108      1.0     0.596754      0.832673      0.374988     Biso  1.000000 Cu
   Cu109      1.0     0.525337      0.854721      0.374998     Biso  1.000000 Cu
   Cu110      1.0     0.596763      0.854721      0.249997     Biso  1.000000 Cu
   Cu111      1.0     0.668188      0.854724      0.374991     Biso  1.000000 Cu
   Cu112      1.0     0.668150      0.788772      0.000044     Biso  1.000000 Cu
   Cu113      1.0     0.596764      0.854721      0.000002     Biso  1.000000 Cu
   Cu114      1.0     0.596760      0.854723      0.499997     Biso  1.000000 Cu
   Cu115      1.0     0.667939      0.788834      0.499889     Biso  1.000000 Cu
   Cu116      1.0     0.525335      0.832671      0.499997     Biso  1.000000 Cu
   Cu117      1.0     0.596729      0.810668      0.499980     Biso  1.000000 Cu
   Cu118      1.0     0.668155      0.832685      0.499977     Biso  1.000000 Cu
   Cu119      1.0     0.525337      0.832670      0.000003     Biso  1.000000 Cu
   Cu120      1.0     0.596754      0.810662      0.000009     Biso  1.000000 Cu
   Cu121      1.0     0.739570      0.788773      0.124882     Biso  1.000000 Cu
   Cu122      1.0     0.739379      0.788881      0.374373     Biso  1.000000 Cu
   Cu123      1.0     0.739605      0.832678      0.124976     Biso  1.000000 Cu
   Cu124      1.0     0.739617      0.854725      0.000009     Biso  1.000000 Cu
   Cu125      1.0     0.739554      0.810689      0.249819     Biso  1.000000 Cu
   Cu126      1.0     0.739591      0.832692      0.374926     Biso  1.000000 Cu
   Cu127      1.0     0.739616      0.854725      0.249985     Biso  1.000000 Cu
   Cu128      1.0     0.739582      0.810670      0.000054     Biso  1.000000 Cu
   Cu129      1.0     0.739621      0.854723      0.499999     Biso  1.000000 Cu
   Cu130      1.0     0.739403      0.810745      0.499838     Biso  1.000000 Cu
   Cu131      1.0     0.525334      0.788771      0.000011     Biso  1.000000 Cu
   Cu132      1.0     0.882507      0.788778      0.124941     Biso  1.000000 Cu
   Cu133      1.0     0.810954      0.788869      0.249340     Biso  1.000000 Cu
   Cu134      1.0     0.882626      0.789124      0.373310     Biso  1.000000 Cu
   Cu135      1.0     0.810538      0.789275      0.499217     Biso  1.000000 Cu
   Cu136      1.0     0.811025      0.810686      0.124806     Biso  1.000000 Cu
   Cu137      1.0     0.882488      0.832692      0.124884     Biso  1.000000 Cu
   Cu138      1.0     0.811048      0.854728      0.124991     Biso  1.000000 Cu
   Cu139      1.0     0.882484      0.854730      0.000008     Biso  1.000000 Cu
   Cu140      1.0     0.811035      0.832697      0.249869     Biso  1.000000 Cu
   Cu141      1.0     0.810968      0.810767      0.374474     Biso  1.000000 Cu
   Cu142      1.0     0.882510      0.810756      0.249434     Biso  1.000000 Cu
   Cu143      1.0     0.882484      0.832682      0.374956     Biso  1.000000 Cu
   Cu144      1.0     0.811051      0.854723      0.374997     Biso  1.000000 Cu
   Cu145      1.0     0.882481      0.854725      0.249988     Biso  1.000000 Cu
   Cu146      1.0     0.811042      0.832691      0.000065     Biso  1.000000 Cu
   Cu147      1.0     0.882505      0.810666      0.000031     Biso  1.000000 Cu
   Cu148      1.0     0.882542      0.810697      0.499920     Biso  1.000000 Cu
   Cu149      1.0     0.954034      0.788786      0.249695     Biso  1.000000 Cu
   Cu150      1.0     0.953940      0.810670      0.124905     Biso  1.000000 Cu
   Cu151      1.0     0.953913      0.854726      0.124983     Biso  1.000000 Cu
   Cu152      1.0     0.953924      0.832692      0.249902     Biso  1.000000 Cu
   Cu153      1.0     0.953906      0.854726      0.374990     Biso  1.000000 Cu
   Cu154      1.0     0.954001      0.810737      0.374682     Biso  1.000000 Cu
   Cu155      1.0     0.953915      0.788769      0.000019     Biso  1.000000 Cu
   Cu156      1.0     0.953921      0.832676      0.000007     Biso  1.000000 Cu
   Cu157      1.0     0.953887      0.832691      0.499991     Biso  1.000000 Cu
   Cu158      1.0     0.811047      0.832673      0.499997     Biso  1.000000 Cu
   Cu159      1.0     0.025339      0.876704      0.124997     Biso  1.000000 Cu
   Cu160      1.0     0.168195      0.876705      0.125003     Biso  1.000000 Cu
   Cu161      1.0     0.096767      0.898534      0.125000     Biso  1.000000 Cu
   Cu162      1.0     0.025339      0.920339      0.125000     Biso  1.000000 Cu
   Cu163      1.0     0.168195      0.920339      0.125000     Biso  1.000000 Cu
   Cu164      1.0     0.096767      0.876704      0.249999     Biso  1.000000 Cu
   Cu165      1.0     0.025339      0.876704      0.375000     Biso  1.000000 Cu
   Cu166      1.0     0.168195      0.876704      0.375000     Biso  1.000000 Cu
   Cu167      1.0     0.025339      0.898534      0.250000     Biso  1.000000 Cu
   Cu168      1.0     0.096767      0.920339      0.250000     Biso  1.000000 Cu
   Cu169      1.0     0.096767      0.898534      0.375000     Biso  1.000000 Cu
   Cu170      1.0     0.025339      0.920339      0.375000     Biso  1.000000 Cu
   Cu171      1.0     0.168195      0.898534      0.250000     Biso  1.000000 Cu
   Cu172      1.0     0.168195      0.920339      0.375000     Biso  1.000000 Cu
   Cu173      1.0     0.096766      0.876705      0.000002     Biso  1.000000 Cu
   Cu174      1.0     0.025339      0.898534      0.000000     Biso  1.000000 Cu
   Cu175      1.0     0.239623      0.898534      0.125000     Biso  1.000000 Cu
   Cu176      1.0     0.239623      0.876704      0.250001     Biso  1.000000 Cu
   Cu177      1.0     0.239623      0.920339      0.250000     Biso  1.000000 Cu
   Cu178      1.0     0.239623      0.898534      0.375000     Biso  1.000000 Cu
   Cu179      1.0     0.239625      0.876705      0.000001     Biso  1.000000 Cu
   Cu180      1.0     0.096767      0.920339      0.500000     Biso  1.000000 Cu
   Cu181      1.0     0.096767      0.876704      0.500000     Biso  1.000000 Cu
   Cu182      1.0     0.025339      0.898534      0.500000     Biso  1.000000 Cu
   Cu183      1.0     0.168195      0.898534      0.500000     Biso  1.000000 Cu
   Cu184      1.0     0.239623      0.876704      0.500000     Biso  1.000000 Cu
   Cu185      1.0     0.453909      0.876703      0.125000     Biso  1.000000 Cu
   Cu186      1.0     0.453909      0.898533      0.000000     Biso  1.000000 Cu
   Cu187      1.0     0.453909      0.920339      0.125000     Biso  1.000000 Cu
   Cu188      1.0     0.453909      0.876704      0.375000     Biso  1.000000 Cu
   Cu189      1.0     0.453909      0.898533      0.250000     Biso  1.000000 Cu
   Cu190      1.0     0.453909      0.920339      0.375000     Biso  1.000000 Cu
   Cu191      1.0     0.311054      0.876704      0.124999     Biso  1.000000 Cu
   Cu192      1.0     0.382480      0.898534      0.125000     Biso  1.000000 Cu
   Cu193      1.0     0.311052      0.920339      0.125000     Biso  1.000000 Cu
   Cu194      1.0     0.382482      0.876704      0.249998     Biso  1.000000 Cu
   Cu195      1.0     0.311052      0.876704      0.375000     Biso  1.000000 Cu
   Cu196      1.0     0.311052      0.898534      0.250000     Biso  1.000000 Cu
   Cu197      1.0     0.382480      0.920339      0.250000     Biso  1.000000 Cu
   Cu198      1.0     0.382480      0.898534      0.375000     Biso  1.000000 Cu
   Cu199      1.0     0.311052      0.920339      0.375000     Biso  1.000000 Cu
   Cu200      1.0     0.382482      0.876704      0.000001     Biso  1.000000 Cu
   Cu201      1.0     0.311052      0.898534      0.000000     Biso  1.000000 Cu
   Cu202      1.0     0.382480      0.920339      0.000000     Biso  1.000000 Cu
   Cu203      1.0     0.453909      0.898534      0.500000     Biso  1.000000 Cu
   Cu204      1.0     0.382480      0.920339      0.500000     Biso  1.000000 Cu
   Cu205      1.0     0.382481      0.876704      0.500000     Biso  1.000000 Cu
   Cu206      1.0     0.311052      0.898534      0.500000     Biso  1.000000 Cu
   Cu207      1.0     0.596766      0.876704      0.125000     Biso  1.000000 Cu
   Cu208      1.0     0.525337      0.920339      0.000000     Biso  1.000000 Cu
   Cu209      1.0     0.525337      0.898533      0.125000     Biso  1.000000 Cu
   Cu210      1.0     0.668195      0.898534      0.125000     Biso  1.000000 Cu
   Cu211      1.0     0.596766      0.920339      0.125000     Biso  1.000000 Cu
   Cu212      1.0     0.525337      0.876703      0.250000     Biso  1.000000 Cu
   Cu213      1.0     0.668193      0.876704      0.249999     Biso  1.000000 Cu
   Cu214      1.0     0.596765      0.876704      0.374999     Biso  1.000000 Cu
   Cu215      1.0     0.525337      0.920339      0.250000     Biso  1.000000 Cu
   Cu216      1.0     0.525337      0.898533      0.375000     Biso  1.000000 Cu
   Cu217      1.0     0.596766      0.898534      0.250000     Biso  1.000000 Cu
   Cu218      1.0     0.668195      0.920339      0.250000     Biso  1.000000 Cu
   Cu219      1.0     0.668195      0.898534      0.375000     Biso  1.000000 Cu
   Cu220      1.0     0.596766      0.920339      0.375000     Biso  1.000000 Cu
   Cu221      1.0     0.525337      0.876703      0.000000     Biso  1.000000 Cu
   Cu222      1.0     0.668193      0.876704      0.000001     Biso  1.000000 Cu
   Cu223      1.0     0.596766      0.898534      0.000000     Biso  1.000000 Cu
   Cu224      1.0     0.739622      0.876704      0.125000     Biso  1.000000 Cu
   Cu225      1.0     0.739623      0.920339      0.125000     Biso  1.000000 Cu
   Cu226      1.0     0.739623      0.876704      0.375000     Biso  1.000000 Cu
   Cu227      1.0     0.739623      0.898534      0.250000     Biso  1.000000 Cu
   Cu228      1.0     0.739623      0.920339      0.375000     Biso  1.000000 Cu
   Cu229      1.0     0.525337      0.920339      0.500000     Biso  1.000000 Cu
   Cu230      1.0     0.668195      0.920339      0.500000     Biso  1.000000 Cu
   Cu231      1.0     0.525338      0.876704      0.500000     Biso  1.000000 Cu
   Cu232      1.0     0.668194      0.876704      0.500000     Biso  1.000000 Cu
   Cu233      1.0     0.596766      0.898534      0.500000     Biso  1.000000 Cu
   Cu234      1.0     0.739623      0.898534      0.500000     Biso  1.000000 Cu
   Cu235      1.0     0.882481      0.876704      0.125001     Biso  1.000000 Cu
   Cu236      1.0     0.811052      0.898534      0.125000     Biso  1.000000 Cu
   Cu237      1.0     0.882480      0.920339      0.125000     Biso  1.000000 Cu
   Cu238      1.0     0.811052      0.876704      0.250000     Biso  1.000000 Cu
   Cu239      1.0     0.882480      0.876704      0.375000     Biso  1.000000 Cu
   Cu240      1.0     0.811052      0.920339      0.250000     Biso  1.000000 Cu
   Cu241      1.0     0.811052      0.898534      0.375000     Biso  1.000000 Cu
   Cu242      1.0     0.882480      0.898534      0.250000     Biso  1.000000 Cu
   Cu243      1.0     0.882480      0.920339      0.375000     Biso  1.000000 Cu
   Cu244      1.0     0.953909      0.898534      0.125000     Biso  1.000000 Cu
   Cu245      1.0     0.953909      0.876704      0.249997     Biso  1.000000 Cu
   Cu246      1.0     0.953909      0.920339      0.250000     Biso  1.000000 Cu
   Cu247      1.0     0.953909      0.898534      0.375000     Biso  1.000000 Cu
   Cu248      1.0     0.953910      0.876704      0.000001     Biso  1.000000 Cu
   Cu249      1.0     0.811052      0.920339      0.000000     Biso  1.000000 Cu
   Cu250      1.0     0.811051      0.876704      0.000000     Biso  1.000000 Cu
   Cu251      1.0     0.953909      0.920339      0.000000     Biso  1.000000 Cu
   Cu252      1.0     0.882480      0.898534      0.000000     Biso  1.000000 Cu
   Cu253      1.0     0.811052      0.876704      0.500000     Biso  1.000000 Cu
   Cu254      1.0     0.882480      0.898534      0.500000     Biso  1.000000 Cu
   Cu255      1.0     0.953909      0.920339      0.500000     Biso  1.000000 Cu
   Cu256      1.0     0.953909      0.876704      0.500000     Biso  1.000000 Cu
   Cu257      1.0     0.025327      0.766901      0.999914     Biso  1.000000 Cu
   Cu258      1.0     0.168187      0.766921      1.000000     Biso  1.000000 Cu
   Cu259      1.0     0.025341      0.766957      0.500030     Biso  1.000000 Cu
   Cu260      1.0     0.096941      0.767067      0.624759     Biso  1.000000 Cu
   Cu261      1.0     0.168346      0.769157      0.501100     Biso  1.000000 Cu
   Cu262      1.0     0.025333      0.766887      0.749954     Biso  1.000000 Cu
   Cu263      1.0     0.096808      0.766890      0.874955     Biso  1.000000 Cu
   Cu264      1.0     0.168343      0.766974      0.749723     Biso  1.000000 Cu
   Cu265      1.0     0.240062      0.767674      0.625318     Biso  1.000000 Cu
   Cu266      1.0     0.239643      0.766929      0.874950     Biso  1.000000 Cu
   Cu267      1.0     0.453924      0.766900      0.750020     Biso  1.000000 Cu
   Cu268      1.0     0.311048      0.766906      0.999979     Biso  1.000000 Cu
   Cu269      1.0     0.382260      0.767236      0.625852     Biso  1.000000 Cu
   Cu270      1.0     0.311164      0.766945      0.750313     Biso  1.000000 Cu
   Cu271      1.0     0.382540      0.766905      0.875078     Biso  1.000000 Cu
   Cu272      1.0     0.739493      0.767870      0.500950     Biso  1.000000 Cu
   Cu273      1.0     0.525346      0.766906      0.625025     Biso  1.000000 Cu
   Cu274      1.0     0.596764      0.766908      0.500003     Biso  1.000000 Cu
   Cu275      1.0     0.668175      0.766916      0.625072     Biso  1.000000 Cu
   Cu276      1.0     0.525338      0.766939      0.874958     Biso  1.000000 Cu
   Cu277      1.0     0.596762      0.766893      0.750041     Biso  1.000000 Cu
   Cu278      1.0     0.668096      0.766907      0.875161     Biso  1.000000 Cu
   Cu279      1.0     0.739620      0.766902      0.999978     Biso  1.000000 Cu
   Cu280      1.0     0.739357      0.766970      0.750435     Biso  1.000000 Cu
   Cu281      1.0     0.882205      0.768490      0.500759     Biso  1.000000 Cu
   Cu282      1.0     0.882476      0.766906      0.999992     Biso  1.000000 Cu
   Cu283      1.0     0.810226      0.768137      0.625852     Biso  1.000000 Cu
   Cu284      1.0     0.811032      0.766912      0.874920     Biso  1.000000 Cu
   Cu285      1.0     0.882215      0.766978      0.749590     Biso  1.000000 Cu
   Cu286      1.0     0.953755      0.767013      0.624840     Biso  1.000000 Cu
   Cu287      1.0     0.953822      0.766934      0.874859     Biso  1.000000 Cu
   Cu288      1.0     0.096765      0.788765      0.999990     Biso  1.000000 Cu
   Cu289      1.0     0.095837      0.789180      0.500111     Biso  1.000000 Cu
   Cu290      1.0     0.025268      0.788804      0.625409     Biso  1.000000 Cu
   Cu291      1.0     0.168105      0.789364      0.627850     Biso  1.000000 Cu
   Cu292      1.0     0.096562      0.788796      0.750465     Biso  1.000000 Cu
   Cu293      1.0     0.025325      0.788764      0.875109     Biso  1.000000 Cu
   Cu294      1.0     0.168150      0.788777      0.875005     Biso  1.000000 Cu
   Cu295      1.0     0.096589      0.810777      0.625453     Biso  1.000000 Cu
   Cu296      1.0     0.025327      0.832705      0.625079     Biso  1.000000 Cu
   Cu297      1.0     0.168198      0.832674      0.625007     Biso  1.000000 Cu
   Cu298      1.0     0.096771      0.854725      0.625002     Biso  1.000000 Cu
   Cu299      1.0     0.025319      0.810683      0.750194     Biso  1.000000 Cu
   Cu300      1.0     0.096736      0.832704      0.750141     Biso  1.000000 Cu
   Cu301      1.0     0.096713      0.810675      0.875157     Biso  1.000000 Cu
   Cu302      1.0     0.025336      0.832678      0.875048     Biso  1.000000 Cu
   Cu303      1.0     0.168166      0.810829      0.750950     Biso  1.000000 Cu
   Cu304      1.0     0.168188      0.832709      0.875218     Biso  1.000000 Cu
   Cu305      1.0     0.025337      0.854729      0.750024     Biso  1.000000 Cu
   Cu306      1.0     0.096761      0.854729      0.875028     Biso  1.000000 Cu
   Cu307      1.0     0.168195      0.854725      0.750007     Biso  1.000000 Cu
   Cu308      1.0     0.239618      0.788769      0.999973     Biso  1.000000 Cu
   Cu309      1.0     0.239875      0.788945      0.751144     Biso  1.000000 Cu
   Cu310      1.0     0.239796      0.810763      0.625416     Biso  1.000000 Cu
   Cu311      1.0     0.239624      0.854723      0.624998     Biso  1.000000 Cu
   Cu312      1.0     0.239654      0.832702      0.750124     Biso  1.000000 Cu
   Cu313      1.0     0.239672      0.810711      0.875352     Biso  1.000000 Cu
   Cu314      1.0     0.239630      0.854728      0.875025     Biso  1.000000 Cu
   Cu315      1.0     0.453934      0.788770      0.875032     Biso  1.000000 Cu
   Cu316      1.0     0.453936      0.788785      0.625052     Biso  1.000000 Cu
   Cu317      1.0     0.453926      0.832674      0.625005     Biso  1.000000 Cu
   Cu318      1.0     0.453933      0.810664      0.750030     Biso  1.000000 Cu
   Cu319      1.0     0.453915      0.832671      0.875009     Biso  1.000000 Cu
   Cu320      1.0     0.453912      0.854722      0.750003     Biso  1.000000 Cu
   Cu321      1.0     0.311480      0.788929      0.625305     Biso  1.000000 Cu
   Cu322      1.0     0.382579      0.788802      0.750278     Biso  1.000000 Cu
   Cu323      1.0     0.311164      0.788784      0.875231     Biso  1.000000 Cu
   Cu324      1.0     0.382589      0.810684      0.625047     Biso  1.000000 Cu
   Cu325      1.0     0.311094      0.832691      0.625042     Biso  1.000000 Cu
   Cu326      1.0     0.382487      0.854724      0.625003     Biso  1.000000 Cu
   Cu327      1.0     0.311163      0.810707      0.750238     Biso  1.000000 Cu
   Cu328      1.0     0.382504      0.832679      0.750029     Biso  1.000000 Cu
   Cu329      1.0     0.382517      0.810668      0.875066     Biso  1.000000 Cu
   Cu330      1.0     0.311075      0.832683      0.875063     Biso  1.000000 Cu
   Cu331      1.0     0.311060      0.854725      0.750013     Biso  1.000000 Cu
   Cu332      1.0     0.382485      0.854723      0.875007     Biso  1.000000 Cu
   Cu333      1.0     0.525366      0.788777      0.500002     Biso  1.000000 Cu
   Cu334      1.0     0.596759      0.788769      0.625035     Biso  1.000000 Cu
   Cu335      1.0     0.525344      0.788768      0.750001     Biso  1.000000 Cu
   Cu336      1.0     0.668033      0.788786      0.750228     Biso  1.000000 Cu
   Cu337      1.0     0.596734      0.788770      0.875038     Biso  1.000000 Cu
   Cu338      1.0     0.525339      0.810661      0.625006     Biso  1.000000 Cu
   Cu339      1.0     0.668023      0.810710      0.625051     Biso  1.000000 Cu
   Cu340      1.0     0.596740      0.832677      0.625004     Biso  1.000000 Cu
   Cu341      1.0     0.525337      0.854722      0.625001     Biso  1.000000 Cu
   Cu342      1.0     0.668188      0.854724      0.625003     Biso  1.000000 Cu
   Cu343      1.0     0.525336      0.832671      0.750006     Biso  1.000000 Cu
   Cu344      1.0     0.525336      0.810662      0.875011     Biso  1.000000 Cu
   Cu345      1.0     0.596733      0.810666      0.750035     Biso  1.000000 Cu
   Cu346      1.0     0.668165      0.832682      0.750039     Biso  1.000000 Cu
   Cu347      1.0     0.668148      0.810670      0.875076     Biso  1.000000 Cu
   Cu348      1.0     0.596758      0.832672      0.875011     Biso  1.000000 Cu
   Cu349      1.0     0.525337      0.854721      0.875002     Biso  1.000000 Cu
   Cu350      1.0     0.596762      0.854722      0.750004     Biso  1.000000 Cu
   Cu351      1.0     0.668189      0.854724      0.875009     Biso  1.000000 Cu
   Cu352      1.0     0.738903      0.789077      0.625641     Biso  1.000000 Cu
   Cu353      1.0     0.739475      0.788792      0.875310     Biso  1.000000 Cu
   Cu354      1.0     0.739593      0.832685      0.625029     Biso  1.000000 Cu
   Cu355      1.0     0.739489      0.810732      0.750335     Biso  1.000000 Cu
   Cu356      1.0     0.739599      0.832688      0.875079     Biso  1.000000 Cu
   Cu357      1.0     0.739617      0.854725      0.750009     Biso  1.000000 Cu
   Cu358      1.0     0.882476      0.854724      0.500000     Biso  1.000000 Cu
   Cu359      1.0     0.811054      0.788768      0.999962     Biso  1.000000 Cu
   Cu360      1.0     0.882668      0.789246      0.626841     Biso  1.000000 Cu
   Cu361      1.0     0.810841      0.789056      0.751673     Biso  1.000000 Cu
   Cu362      1.0     0.882543      0.788781      0.875100     Biso  1.000000 Cu
   Cu363      1.0     0.810927      0.810731      0.625300     Biso  1.000000 Cu
   Cu364      1.0     0.882474      0.832676      0.625018     Biso  1.000000 Cu
   Cu365      1.0     0.811050      0.854723      0.625000     Biso  1.000000 Cu
   Cu366      1.0     0.811033      0.832692      0.750086     Biso  1.000000 Cu
   Cu367      1.0     0.811022      0.810737      0.875489     Biso  1.000000 Cu
   Cu368      1.0     0.882534      0.810791      0.750685     Biso  1.000000 Cu
   Cu369      1.0     0.882494      0.832701      0.875159     Biso  1.000000 Cu
   Cu370      1.0     0.811048      0.854727      0.875015     Biso  1.000000 Cu
   Cu371      1.0     0.882480      0.854725      0.750007     Biso  1.000000 Cu
   Cu372      1.0     0.954023      0.788794      0.750306     Biso  1.000000 Cu
   Cu373      1.0     0.954506      0.789045      0.500040     Biso  1.000000 Cu
   Cu374      1.0     0.953904      0.854726      0.625006     Biso  1.000000 Cu
   Cu375      1.0     0.953931      0.832697      0.750107     Biso  1.000000 Cu
   Cu376      1.0     0.953914      0.854727      0.875021     Biso  1.000000 Cu
   Cu377      1.0     0.954035      0.810752      0.625312     Biso  1.000000 Cu
   Cu378      1.0     0.953947      0.810671      0.875124     Biso  1.000000 Cu
   Cu379      1.0     0.168195      0.898534      1.000000     Biso  1.000000 Cu
   Cu380      1.0     0.239623      0.920339      1.000000     Biso  1.000000 Cu
   Cu381      1.0     0.096767      0.920339      1.000000     Biso  1.000000 Cu
   Cu382      1.0     0.025339      0.876704      0.625000     Biso  1.000000 Cu
   Cu383      1.0     0.168195      0.876704      0.625000     Biso  1.000000 Cu
   Cu384      1.0     0.096767      0.898534      0.625000     Biso  1.000000 Cu
   Cu385      1.0     0.025339      0.920339      0.625000     Biso  1.000000 Cu
   Cu386      1.0     0.168195      0.920339      0.625000     Biso  1.000000 Cu
   Cu387      1.0     0.096767      0.876704      0.750000     Biso  1.000000 Cu
   Cu388      1.0     0.025339      0.876705      0.875004     Biso  1.000000 Cu
   Cu389      1.0     0.168195      0.876704      0.874999     Biso  1.000000 Cu
   Cu390      1.0     0.025339      0.898534      0.750000     Biso  1.000000 Cu
   Cu391      1.0     0.096767      0.920339      0.750000     Biso  1.000000 Cu
   Cu392      1.0     0.096767      0.898534      0.875000     Biso  1.000000 Cu
   Cu393      1.0     0.025339      0.920339      0.875000     Biso  1.000000 Cu
   Cu394      1.0     0.168195      0.898534      0.750000     Biso  1.000000 Cu
   Cu395      1.0     0.168195      0.920339      0.875000     Biso  1.000000 Cu
   Cu396      1.0     0.239623      0.920339      0.500000     Biso  1.000000 Cu
   Cu397      1.0     0.239623      0.898534      0.625000     Biso  1.000000 Cu
   Cu398      1.0     0.239623      0.876704      0.750000     Biso  1.000000 Cu
   Cu399      1.0     0.239623      0.920339      0.750000     Biso  1.000000 Cu
   Cu400      1.0     0.239623      0.898534      0.875000     Biso  1.000000 Cu
   Cu401      1.0     0.453909      0.876704      0.625000     Biso  1.000000 Cu
   Cu402      1.0     0.453909      0.920339      0.625000     Biso  1.000000 Cu
   Cu403      1.0     0.453909      0.876704      0.875001     Biso  1.000000 Cu
   Cu404      1.0     0.453909      0.898534      0.750000     Biso  1.000000 Cu
   Cu405      1.0     0.453909      0.920339      0.875000     Biso  1.000000 Cu
   Cu406      1.0     0.311052      0.876704      0.625000     Biso  1.000000 Cu
   Cu407      1.0     0.382480      0.898534      0.625000     Biso  1.000000 Cu
   Cu408      1.0     0.311052      0.920339      0.625000     Biso  1.000000 Cu
   Cu409      1.0     0.382481      0.876704      0.750001     Biso  1.000000 Cu
   Cu410      1.0     0.311054      0.876704      0.875002     Biso  1.000000 Cu
   Cu411      1.0     0.311052      0.898534      0.750000     Biso  1.000000 Cu
   Cu412      1.0     0.382480      0.920339      0.750000     Biso  1.000000 Cu
   Cu413      1.0     0.382480      0.898534      0.875000     Biso  1.000000 Cu
   Cu414      1.0     0.311052      0.920339      0.875000     Biso  1.000000 Cu
   Cu415      1.0     0.668195      0.920339      1.000000     Biso  1.000000 Cu
   Cu416      1.0     0.739623      0.898534      1.000000     Biso  1.000000 Cu
   Cu417      1.0     0.596766      0.876704      0.625000     Biso  1.000000 Cu
   Cu418      1.0     0.525337      0.898534      0.625000     Biso  1.000000 Cu
   Cu419      1.0     0.668195      0.898534      0.625000     Biso  1.000000 Cu
   Cu420      1.0     0.596766      0.920339      0.625000     Biso  1.000000 Cu
   Cu421      1.0     0.525337      0.876704      0.750000     Biso  1.000000 Cu
   Cu422      1.0     0.668194      0.876704      0.750000     Biso  1.000000 Cu
   Cu423      1.0     0.596765      0.876704      0.875001     Biso  1.000000 Cu
   Cu424      1.0     0.525337      0.920339      0.750000     Biso  1.000000 Cu
   Cu425      1.0     0.525337      0.898533      0.875000     Biso  1.000000 Cu
   Cu426      1.0     0.596766      0.898534      0.750000     Biso  1.000000 Cu
   Cu427      1.0     0.668195      0.920339      0.750000     Biso  1.000000 Cu
   Cu428      1.0     0.668195      0.898534      0.875000     Biso  1.000000 Cu
   Cu429      1.0     0.596766      0.920339      0.875000     Biso  1.000000 Cu
   Cu430      1.0     0.739623      0.876704      0.625000     Biso  1.000000 Cu
   Cu431      1.0     0.739623      0.920339      0.625000     Biso  1.000000 Cu
   Cu432      1.0     0.739622      0.876704      0.875001     Biso  1.000000 Cu
   Cu433      1.0     0.739623      0.898534      0.750000     Biso  1.000000 Cu
   Cu434      1.0     0.739623      0.920339      0.875000     Biso  1.000000 Cu
   Cu435      1.0     0.811052      0.920339      0.500000     Biso  1.000000 Cu
   Cu436      1.0     0.882480      0.876704      0.625000     Biso  1.000000 Cu
   Cu437      1.0     0.811052      0.898534      0.625000     Biso  1.000000 Cu
   Cu438      1.0     0.882480      0.920339      0.625000     Biso  1.000000 Cu
   Cu439      1.0     0.811052      0.876704      0.750000     Biso  1.000000 Cu
   Cu440      1.0     0.882480      0.876704      0.875000     Biso  1.000000 Cu
   Cu441      1.0     0.811052      0.920339      0.750000     Biso  1.000000 Cu
   Cu442      1.0     0.811052      0.898534      0.875000     Biso  1.000000 Cu
   Cu443      1.0     0.882480      0.898534      0.750000     Biso  1.000000 Cu
   Cu444      1.0     0.882480      0.920339      0.875000     Biso  1.000000 Cu
   Cu445      1.0     0.953909      0.898534      0.625000     Biso  1.000000 Cu
   Cu446      1.0     0.953909      0.876704      0.750002     Biso  1.000000 Cu
   Cu447      1.0     0.953909      0.920339      0.750000     Biso  1.000000 Cu
   Cu448      1.0     0.953909      0.898534      0.875000     Biso  1.000000 Cu
   H1         1.0     0.236323      0.275603      0.373820     Biso  1.000000 H
   H2         1.0     0.299340      0.258347      0.440277     Biso  1.000000 H
   H3         1.0     0.388446      0.267830      0.474872     Biso  1.000000 H
   H4         1.0     0.661798      0.258777      0.445990     Biso  1.000000 H
   H5         1.0     0.598860      0.275218      0.363606     Biso  1.000000 H
   H6         1.0     0.744961      0.270406      0.494295     Biso  1.000000 H
   H7         1.0     0.096446      0.325112      0.479495     Biso  1.000000 H
   H8         1.0     0.094901      0.316543      0.272457     Biso  1.000000 H
   H9         1.0     0.186443      0.309619      0.283419     Biso  1.000000 H
   H10        1.0     0.071515      0.344929      0.273517     Biso  1.000000 H
   H11        1.0     0.114908      0.353857      0.474860     Biso  1.000000 H
   H12        1.0     0.230717      0.357035      0.255997     Biso  1.000000 H
   H13        1.0     0.167964      0.306551      0.492701     Biso  1.000000 H
   H14        1.0     0.253388      0.329472      0.264589     Biso  1.000000 H
   H15        1.0     0.458987      0.321707      0.484715     Biso  1.000000 H
   H16        1.0     0.446069      0.317781      0.287690     Biso  1.000000 H
   H17        1.0     0.318167      0.324796      0.341073     Biso  1.000000 H
   H18        1.0     0.382971      0.320495      0.361252     Biso  1.000000 H
   H19        1.0     0.255121      0.303986      0.348170     Biso  1.000000 H
   H20        1.0     0.407309      0.294770      0.453887     Biso  1.000000 H
   H21        1.0     0.341703      0.325562      0.453260     Biso  1.000000 H
   H22        1.0     0.425561      0.346310      0.291222     Biso  1.000000 H
   H23        1.0     0.478828      0.347904      0.404414     Biso  1.000000 H
   H24        1.0     0.450580      0.350991      0.482058     Biso  1.000000 H
   H25        1.0     0.675379      0.324401      0.335745     Biso  1.000000 H
   H26        1.0     0.739777      0.322395      0.375574     Biso  1.000000 H
   H27        1.0     0.615111      0.303573      0.338290     Biso  1.000000 H
   H28        1.0     0.689753      0.326816      0.452792     Biso  1.000000 H
   H29        1.0     0.536538      0.309753      0.264993     Biso  1.000000 H
   H30        1.0     0.604999      0.329109      0.245787     Biso  1.000000 H
   H31        1.0     0.761679      0.298370      0.467058     Biso  1.000000 H
   H32        1.0     0.219180      0.388287      0.338411     Biso  1.000000 H
   H33        1.0     0.223252      0.371933      0.429883     Biso  1.000000 H
   H34        1.0     0.098901      0.370747      0.318314     Biso  1.000000 H
   H35        1.0     0.164181      0.374743      0.336036     Biso  1.000000 H
   H36        1.0     0.136989      0.376824      0.225516     Biso  1.000000 H
   H37        1.0     0.187522      0.422423      0.277613     Biso  1.000000 H
   H38        1.0     0.243224      0.416213      0.398100     Biso  1.000000 H
   H39        1.0     0.371609      0.375732      0.336313     Biso  1.000000 H
   H40        1.0     0.286436      0.370182      0.303725     Biso  1.000000 H
   H41        1.0     0.451165      0.369525      0.309048     Biso  1.000000 H
   H42        1.0     0.482613      0.375509      0.207132     Biso  1.000000 H
   H43        1.0     0.398861      0.405007      0.366416     Biso  1.000000 H
   H44        1.0     0.445635      0.427971      0.272904     Biso  1.000000 H
   H45        1.0     0.463529      0.377733      0.394669     Biso  1.000000 H
   H46        1.0     0.460950      0.405732      0.391042     Biso  1.000000 H
   H47        1.0     0.422072      0.415880      0.466493     Biso  1.000000 H
   H48        1.0     0.584029      0.357683      0.247350     Biso  1.000000 H
   H49        1.0     0.580403      0.390708      0.363868     Biso  1.000000 H
   H50        1.0     0.739497      0.377052      0.377974     Biso  1.000000 H
   H51        1.0     0.643392      0.370602      0.349449     Biso  1.000000 H
   H52        1.0     0.565011      0.371903      0.415689     Biso  1.000000 H
   H53        1.0     0.515325      0.376270      0.315019     Biso  1.000000 H
   H54        1.0     0.608386      0.418132      0.401459     Biso  1.000000 H
   H55        1.0     0.536389      0.419834      0.251570     Biso  1.000000 H
   H56        1.0     0.696269      0.394310      0.496569     Biso  1.000000 H
   H57        1.0     0.763108      0.405755      0.332860     Biso  1.000000 H
   H58        1.0     0.803055      0.409380      0.441355     Biso  1.000000 H
   H59        1.0     0.094542      0.428601      0.249228     Biso  1.000000 H
   H60        1.0     0.247596      0.443661      0.293450     Biso  1.000000 H
   H61        1.0     0.066901      0.455917      0.236162     Biso  1.000000 H
   H62        1.0     0.192981      0.481032      0.405025     Biso  1.000000 H
   H63        1.0     0.218874      0.471687      0.283669     Biso  1.000000 H
   H64        1.0     0.103529      0.483846      0.347727     Biso  1.000000 H
   H65        1.0     0.154716      0.490555      0.279992     Biso  1.000000 H
   H66        1.0     0.097422      0.486195      0.225133     Biso  1.000000 H
   H67        1.0     0.107504      0.461724      0.487957     Biso  1.000000 H
   H68        1.0     0.461664      0.433558      0.490030     Biso  1.000000 H
   H69        1.0     0.428407      0.455657      0.304146     Biso  1.000000 H
   H70        1.0     0.309236      0.436864      0.362032     Biso  1.000000 H
   H71        1.0     0.373156      0.432462      0.385320     Biso  1.000000 H
   H72        1.0     0.326827      0.431192      0.473464     Biso  1.000000 H
   H73        1.0     0.491651      0.459374      0.413665     Biso  1.000000 H
   H74        1.0     0.359960      0.488412      0.321285     Biso  1.000000 H
   H75        1.0     0.271617      0.484335      0.312601     Biso  1.000000 H
   H76        1.0     0.450851      0.480382      0.320475     Biso  1.000000 H
   H77        1.0     0.487935      0.487452      0.229070     Biso  1.000000 H
   H78        1.0     0.455331      0.489853      0.391272     Biso  1.000000 H
   H79        1.0     0.439033      0.439125      0.101365     Biso  1.000000 H
   H80        1.0     0.299614      0.476297      0.488756     Biso  1.000000 H
   H81        1.0     0.455170      0.461886      0.484846     Biso  1.000000 H
   H82        1.0     0.687481      0.437879      0.337525     Biso  1.000000 H
   H83        1.0     0.739119      0.432459      0.409305     Biso  1.000000 H
   H84        1.0     0.676584      0.434362      0.454076     Biso  1.000000 H
   H85        1.0     0.604070      0.439470      0.242274     Biso  1.000000 H
   H86        1.0     0.732332      0.487009      0.378572     Biso  1.000000 H
   H87        1.0     0.640357      0.481262      0.324255     Biso  1.000000 H
   H88        1.0     0.569310      0.479521      0.413936     Biso  1.000000 H
   H89        1.0     0.586264      0.467799      0.266222     Biso  1.000000 H
   H90        1.0     0.514901      0.486621      0.340668     Biso  1.000000 H
   H91        1.0     0.211178      0.504262      0.369605     Biso  1.000000 H
   H92        1.0     0.176889      0.530610      0.245864     Biso  1.000000 H
   H93        1.0     0.095402      0.543733      0.484152     Biso  1.000000 H
   H94        1.0     0.248195      0.549883      0.264682     Biso  1.000000 H
   H95        1.0     0.090093      0.539662      0.240549     Biso  1.000000 H
   H96        1.0     0.067193      0.568028      0.255834     Biso  1.000000 H
   H97        1.0     0.242449      0.530649      0.408629     Biso  1.000000 H
   H98        1.0     0.394660      0.515288      0.393477     Biso  1.000000 H
   H99        1.0     0.444740      0.538741      0.263951     Biso  1.000000 H
   H100       1.0     0.426995      0.567384      0.262142     Biso  1.000000 H
   H101       1.0     0.327224      0.549915      0.335713     Biso  1.000000 H
   H102       1.0     0.380864      0.543040      0.395913     Biso  1.000000 H
   H103       1.0     0.325033      0.547408      0.456395     Biso  1.000000 H
   H104       1.0     0.457802      0.515980      0.424763     Biso  1.000000 H
   H105       1.0     0.486366      0.570594      0.404174     Biso  1.000000 H
   H106       1.0     0.329657      0.503767      0.484239     Biso  1.000000 H
   H107       1.0     0.577143      0.501576      0.359913     Biso  1.000000 H
   H108       1.0     0.605940      0.527701      0.417574     Biso  1.000000 H
   H109       1.0     0.533333      0.529481      0.261169     Biso  1.000000 H
   H110       1.0     0.680556      0.548571      0.344257     Biso  1.000000 H
   H111       1.0     0.738405      0.543452      0.393563     Biso  1.000000 H
   H112       1.0     0.684498      0.544957      0.464842     Biso  1.000000 H
   H113       1.0     0.605051      0.548425      0.263421     Biso  1.000000 H
   H114       1.0     0.758222      0.515893      0.335311     Biso  1.000000 H
   H115       1.0     0.780999      0.522974      0.446460     Biso  1.000000 H
   H116       1.0     0.205676      0.591664      0.406675     Biso  1.000000 H
   H117       1.0     0.227811      0.577250      0.286010     Biso  1.000000 H
   H118       1.0     0.103085      0.592410      0.349286     Biso  1.000000 H
   H119       1.0     0.161452      0.599233      0.304613     Biso  1.000000 H
   H120       1.0     0.109098      0.596129      0.230261     Biso  1.000000 H
   H121       1.0     0.214141      0.612772      0.363778     Biso  1.000000 H
   H122       1.0     0.177207      0.641835      0.279232     Biso  1.000000 H
   H123       1.0     0.243334      0.640026      0.397987     Biso  1.000000 H
   H124       1.0     0.105216      0.572975      0.472414     Biso  1.000000 H
   H125       1.0     0.368111      0.599134      0.323728     Biso  1.000000 H
   H126       1.0     0.276951      0.592718      0.322640     Biso  1.000000 H
   H127       1.0     0.450142      0.593151      0.290510     Biso  1.000000 H
   H128       1.0     0.399521      0.626428      0.390873     Biso  1.000000 H
   H129       1.0     0.463524      0.600742      0.400099     Biso  1.000000 H
   H130       1.0     0.463817      0.625708      0.427077     Biso  1.000000 H
   H131       1.0     0.458579      0.573401      0.479990     Biso  1.000000 H
   H132       1.0     0.304772      0.641717      0.125007     Biso  1.000000 H
   H133       1.0     0.328415      0.613807      0.495863     Biso  1.000000 H
   H134       1.0     0.503164      0.597030      0.218832     Biso  1.000000 H
   H135       1.0     0.646312      0.593124      0.384448     Biso  1.000000 H
   H136       1.0     0.577340      0.592368      0.405807     Biso  1.000000 H
   H137       1.0     0.587128      0.576691      0.272898     Biso  1.000000 H
   H138       1.0     0.511267      0.596829      0.338305     Biso  1.000000 H
   H139       1.0     0.735174      0.600738      0.369148     Biso  1.000000 H
   H140       1.0     0.605958      0.641433      0.360171     Biso  1.000000 H
   H141       1.0     0.579687      0.613221      0.360513     Biso  1.000000 H
   H142       1.0     0.746413      0.626809      0.309890     Biso  1.000000 H
   H143       1.0     0.759027      0.629725      0.434893     Biso  1.000000 H
   H144       1.0     0.824878      0.629793      0.484663     Biso  1.000000 H
   H145       1.0     0.248700      0.660691      0.269797     Biso  1.000000 H
   H146       1.0     0.088385      0.650402      0.267318     Biso  1.000000 H
   H147       1.0     0.165621      0.706897      0.496332     Biso  1.000000 H
   H148       1.0     0.232300      0.706012      0.476698     Biso  1.000000 H
   H149       1.0     0.227681      0.689156      0.261133     Biso  1.000000 H
   H150       1.0     0.067822      0.678761      0.263149     Biso  1.000000 H
   H151       1.0     0.096731      0.704432      0.313362     Biso  1.000000 H
   H152       1.0     0.162347      0.709493      0.313716     Biso  1.000000 H
   H153       1.0     0.128409      0.707848      0.208348     Biso  1.000000 H
   H154       1.0     0.460074      0.654136      0.463436     Biso  1.000000 H
   H155       1.0     0.447232      0.649302      0.248023     Biso  1.000000 H
   H156       1.0     0.330515      0.658811      0.318314     Biso  1.000000 H
   H157       1.0     0.383669      0.651649      0.378935     Biso  1.000000 H
   H158       1.0     0.328712      0.657879      0.440174     Biso  1.000000 H
   H159       1.0     0.420957      0.676230      0.274983     Biso  1.000000 H
   H160       1.0     0.443558      0.702543      0.344211     Biso  1.000000 H
   H161       1.0     0.470111      0.707842      0.235650     Biso  1.000000 H
   H162       1.0     0.471835      0.682210      0.447553     Biso  1.000000 H
   H163       1.0     0.326948      0.647255      0.139054     Biso  1.000000 H
   H164       1.0     0.260166      0.649513      0.492547     Biso  1.000000 H
   H165       1.0     0.274392      0.677806      0.487567     Biso  1.000000 H
   H166       1.0     0.540728      0.643069      0.251630     Biso  1.000000 H
   H167       1.0     0.658335      0.661222      0.351381     Biso  1.000000 H
   H168       1.0     0.717370      0.656174      0.299347     Biso  1.000000 H
   H169       1.0     0.712956      0.659088      0.420309     Biso  1.000000 H
   H170       1.0     0.603195      0.662926      0.278829     Biso  1.000000 H
   H171       1.0     0.531398      0.705021      0.436970     Biso  1.000000 H
   H172       1.0     0.592946      0.704018      0.484830     Biso  1.000000 H
   H173       1.0     0.577178      0.691222      0.301553     Biso  1.000000 H
   H174       1.0     0.506850      0.709384      0.336373     Biso  1.000000 H
   H175       1.0     0.381244      0.733224      0.435354     Biso  1.000000 H
   H176       1.0     0.448382      0.736682      0.460180     Biso  1.000000 H
   H177       1.0     0.741021      0.740930      0.452393     Biso  1.000000 H
   H178       1.0     0.806258      0.738855      0.495801     Biso  1.000000 H
   H179       1.0     0.100009      0.253890      0.583174     Biso  1.000000 H
   H180       1.0     0.022108      0.270648      0.574559     Biso  1.000000 H
   H181       1.0     0.179185      0.264540      0.647337     Biso  1.000000 H
   H182       1.0     0.230848      0.274365      0.659087     Biso  1.000000 H
   H183       1.0     0.456677      0.260960      0.547794     Biso  1.000000 H
   H184       1.0     0.287548      0.256411      0.753601     Biso  1.000000 H
   H185       1.0     0.363605      0.268280      0.761748     Biso  1.000000 H
   H186       1.0     0.384975      0.254469      0.676662     Biso  1.000000 H
   H187       1.0     0.675751      0.252661      0.690029     Biso  1.000000 H
   H188       1.0     0.538309      0.260354      0.624537     Biso  1.000000 H
   H189       1.0     0.607777      0.271398      0.667467     Biso  1.000000 H
   H190       1.0     0.564357      0.284994      0.720068     Biso  1.000000 H
   H191       1.0     0.766151      0.260514      0.680775     Biso  1.000000 H
   H192       1.0     0.027232      0.298056      0.628487     Biso  1.000000 H
   H193       1.0     0.074281      0.315790      0.754433     Biso  1.000000 H
   H194       1.0     0.141005      0.314149      0.762195     Biso  1.000000 H
   H195       1.0     0.111875      0.321203      0.659067     Biso  1.000000 H
   H196       1.0     0.185622      0.292292      0.699221     Biso  1.000000 H
   H197       1.0     0.204895      0.315720      0.718750     Biso  1.000000 H
   H198       1.0     0.091620      0.353477      0.887808     Biso  1.000000 H
   H199       1.0     0.160379      0.336532      0.945246     Biso  1.000000 H
   H200       1.0     0.130296      0.335303      0.715814     Biso  1.000000 H
   H201       1.0     0.248452      0.347978      0.967326     Biso  1.000000 H
   H202       1.0     0.437036      0.308773      0.597916     Biso  1.000000 H
   H203       1.0     0.343391      0.296633      0.735621     Biso  1.000000 H
   H204       1.0     0.467919      0.319253      0.734276     Biso  1.000000 H
   H205       1.0     0.392638      0.323565      0.807254     Biso  1.000000 H
   H206       1.0     0.265952      0.298712      0.615224     Biso  1.000000 H
   H207       1.0     0.310820      0.315931      0.611905     Biso  1.000000 H
   H208       1.0     0.369081      0.318960      0.665521     Biso  1.000000 H
   H209       1.0     0.367477      0.311787      0.550829     Biso  1.000000 H
   H210       1.0     0.256583      0.316190      0.507617     Biso  1.000000 H
   H211       1.0     0.289744      0.323362      0.745329     Biso  1.000000 H
   H212       1.0     0.455120      0.352839      0.938413     Biso  1.000000 H
   H213       1.0     0.349870      0.338707      0.929885     Biso  1.000000 H
   H214       1.0     0.443362      0.338193      0.690043     Biso  1.000000 H
   H215       1.0     0.274106      0.344363      0.515078     Biso  1.000000 H
   H216       1.0     0.313020      0.352138      0.755841     Biso  1.000000 H
   H217       1.0     0.363693      0.346377      0.548583     Biso  1.000000 H
   H218       1.0     0.527757      0.313532      0.777337     Biso  1.000000 H
   H219       1.0     0.531351      0.305218      0.526580     Biso  1.000000 H
   H220       1.0     0.522046      0.320738      0.663321     Biso  1.000000 H
   H221       1.0     0.628206      0.299978      0.647967     Biso  1.000000 H
   H222       1.0     0.704235      0.319602      0.606639     Biso  1.000000 H
   H223       1.0     0.728006      0.317939      0.721339     Biso  1.000000 H
   H224       1.0     0.619918      0.316455      0.513524     Biso  1.000000 H
   H225       1.0     0.673776      0.324413      0.733316     Biso  1.000000 H
   H226       1.0     0.585293      0.314934      0.733409     Biso  1.000000 H
   H227       1.0     0.705553      0.344743      0.875800     Biso  1.000000 H
   H228       1.0     0.527924      0.334625      0.923757     Biso  1.000000 H
   H229       1.0     0.617297      0.345946      0.934617     Biso  1.000000 H
   H230       1.0     0.626061      0.345815      0.523839     Biso  1.000000 H
   H231       1.0     0.689365      0.353059      0.747961     Biso  1.000000 H
   H232       1.0     0.512456      0.333853      0.758196     Biso  1.000000 H
   H233       1.0     0.730107      0.345469      0.539813     Biso  1.000000 H
   H234       1.0     0.771616      0.326538      0.812139     Biso  1.000000 H
   H235       1.0     0.767682      0.313156      0.628326     Biso  1.000000 H
   H236       1.0     0.789145      0.288089      0.653263     Biso  1.000000 H
   H237       1.0     0.849248      0.338220      0.741127     Biso  1.000000 H
   H238       1.0     0.821166      0.352275      0.519756     Biso  1.000000 H
   H239       1.0     0.174291      0.375369      0.509531     Biso  1.000000 H
   H240       1.0     0.175029      0.417045      0.533070     Biso  1.000000 H
   H241       1.0     0.014224      0.381472      0.590535     Biso  1.000000 H
   H242       1.0     0.091595      0.364353      0.604933     Biso  1.000000 H
   H243       1.0     0.175599      0.376990      0.631254     Biso  1.000000 H
   H244       1.0     0.108644      0.381393      0.856381     Biso  1.000000 H
   H245       1.0     0.236761      0.370603      0.548009     Biso  1.000000 H
   H246       1.0     0.199956      0.377203      0.797765     Biso  1.000000 H
   H247       1.0     0.154023      0.363225      0.710453     Biso  1.000000 H
   H248       1.0     0.234537      0.383816      0.702258     Biso  1.000000 H
   H249       1.0     0.019713      0.408967      0.647334     Biso  1.000000 H
   H250       1.0     0.106972      0.426702      0.770657     Biso  1.000000 H
   H251       1.0     0.180860      0.404430      0.683327     Biso  1.000000 H
   H252       1.0     0.185225      0.400519      0.817979     Biso  1.000000 H
   H253       1.0     0.176206      0.406104      0.931801     Biso  1.000000 H
   H254       1.0     0.237517      0.400286      0.894372     Biso  1.000000 H
   H255       1.0     0.217274      0.427745      0.734747     Biso  1.000000 H
   H256       1.0     0.389853      0.379834      0.625323     Biso  1.000000 H
   H257       1.0     0.488720      0.370203      0.574956     Biso  1.000000 H
   H258       1.0     0.299773      0.380210      0.749649     Biso  1.000000 H
   H259       1.0     0.377796      0.366674      0.720802     Biso  1.000000 H
   H260       1.0     0.469729      0.380276      0.971854     Biso  1.000000 H
   H261       1.0     0.359206      0.368049      0.938267     Biso  1.000000 H
   H262       1.0     0.408885      0.393059      0.805387     Biso  1.000000 H
   H263       1.0     0.425330      0.390527      0.920925     Biso  1.000000 H
   H264       1.0     0.471819      0.388262      0.834351     Biso  1.000000 H
   H265       1.0     0.468528      0.365337      0.719120     Biso  1.000000 H
   H266       1.0     0.264238      0.375381      0.943416     Biso  1.000000 H
   H267       1.0     0.250527      0.386253      0.587348     Biso  1.000000 H
   H268       1.0     0.265418      0.378696      0.807573     Biso  1.000000 H
   H269       1.0     0.334003      0.393982      0.520857     Biso  1.000000 H
   H270       1.0     0.304171      0.367932      0.541663     Biso  1.000000 H
   H271       1.0     0.425543      0.415239      0.629584     Biso  1.000000 H
   H272       1.0     0.259168      0.413615      0.621255     Biso  1.000000 H
   H273       1.0     0.334995      0.412293      0.514707     Biso  1.000000 H
   H274       1.0     0.529184      0.373638      0.515430     Biso  1.000000 H
   H275       1.0     0.531169      0.414800      0.522324     Biso  1.000000 H
   H276       1.0     0.560390      0.378143      0.663179     Biso  1.000000 H
   H277       1.0     0.613764      0.384635      0.731137     Biso  1.000000 H
   H278       1.0     0.687015      0.366299      0.670825     Biso  1.000000 H
   H279       1.0     0.721846      0.372381      0.887048     Biso  1.000000 H
   H280       1.0     0.629226      0.374065      0.929952     Biso  1.000000 H
   H281       1.0     0.593934      0.369830      0.525812     Biso  1.000000 H
   H282       1.0     0.572303      0.375161      0.806347     Biso  1.000000 H
   H283       1.0     0.622151      0.384903      0.608475     Biso  1.000000 H
   H284       1.0     0.526819      0.361186      0.735289     Biso  1.000000 H
   H285       1.0     0.639710      0.374975      0.829748     Biso  1.000000 H
   H286       1.0     0.666618      0.367519      0.534753     Biso  1.000000 H
   H287       1.0     0.570215      0.406950      0.694977     Biso  1.000000 H
   H288       1.0     0.643420      0.413443      0.617040     Biso  1.000000 H
   H289       1.0     0.621628      0.424152      0.522075     Biso  1.000000 H
   H290       1.0     0.546412      0.397930      0.826071     Biso  1.000000 H
   H291       1.0     0.528620      0.404384      0.935771     Biso  1.000000 H
   H292       1.0     0.593058      0.401625      0.909045     Biso  1.000000 H
   H293       1.0     0.585257      0.425779      0.739244     Biso  1.000000 H
   H294       1.0     0.772773      0.413793      0.545667     Biso  1.000000 H
   H295       1.0     0.784009      0.394791      0.878376     Biso  1.000000 H
   H296       1.0     0.768624      0.374333      0.708404     Biso  1.000000 H
   H297       1.0     0.842591      0.385681      0.913960     Biso  1.000000 H
   H298       1.0     0.837932      0.394250      0.804879     Biso  1.000000 H
   H299       1.0     0.865359      0.366446      0.750486     Biso  1.000000 H
   H300       1.0     0.851060      0.380011      0.533623     Biso  1.000000 H
   H301       1.0     0.768555      0.428232      0.626440     Biso  1.000000 H
   H302       1.0     0.796843      0.403404      0.707127     Biso  1.000000 H
   H303       1.0     0.834652      0.406022      0.548919     Biso  1.000000 H
   H304       1.0     0.168173      0.485087      0.514747     Biso  1.000000 H
   H305       1.0     0.099141      0.433657      0.502214     Biso  1.000000 H
   H306       1.0     0.140458      0.429983      0.667417     Biso  1.000000 H
   H307       1.0     0.072834      0.432336      0.672292     Biso  1.000000 H
   H308       1.0     0.093861      0.465434      0.903536     Biso  1.000000 H
   H309       1.0     0.163965      0.448404      0.961615     Biso  1.000000 H
   H310       1.0     0.141224      0.446088      0.730530     Biso  1.000000 H
   H311       1.0     0.015154      0.490271      0.611463     Biso  1.000000 H
   H312       1.0     0.094484      0.474244      0.598857     Biso  1.000000 H
   H313       1.0     0.178614      0.486529      0.622480     Biso  1.000000 H
   H314       1.0     0.112410      0.493187      0.864819     Biso  1.000000 H
   H315       1.0     0.234654      0.482812      0.500233     Biso  1.000000 H
   H316       1.0     0.195885      0.492306      0.773998     Biso  1.000000 H
   H317       1.0     0.155265      0.473626      0.719826     Biso  1.000000 H
   H318       1.0     0.238665      0.496637      0.685392     Biso  1.000000 H
   H319       1.0     0.365965      0.431655      0.602202     Biso  1.000000 H
   H320       1.0     0.261358      0.428622      0.531770     Biso  1.000000 H
   H321       1.0     0.254078      0.458568      0.957468     Biso  1.000000 H
   H322       1.0     0.467607      0.433097      0.677197     Biso  1.000000 H
   H323       1.0     0.458466      0.466824      0.959307     Biso  1.000000 H
   H324       1.0     0.342610      0.448360      0.893126     Biso  1.000000 H
   H325       1.0     0.404123      0.435330      0.785984     Biso  1.000000 H
   H326       1.0     0.469490      0.451556      0.706379     Biso  1.000000 H
   H327       1.0     0.301205      0.433100      0.635409     Biso  1.000000 H
   H328       1.0     0.350444      0.435715      0.716600     Biso  1.000000 H
   H329       1.0     0.270578      0.457562      0.514743     Biso  1.000000 H
   H330       1.0     0.318169      0.467549      0.740380     Biso  1.000000 H
   H331       1.0     0.300950      0.438926      0.764674     Biso  1.000000 H
   H332       1.0     0.361885      0.454275      0.504361     Biso  1.000000 H
   H333       1.0     0.366858      0.471551      0.648336     Biso  1.000000 H
   H334       1.0     0.476253      0.476043      0.602927     Biso  1.000000 H
   H335       1.0     0.398142      0.486595      0.716245     Biso  1.000000 H
   H336       1.0     0.471631      0.494609      0.961338     Biso  1.000000 H
   H337       1.0     0.340096      0.477304      0.903486     Biso  1.000000 H
   H338       1.0     0.481428      0.479361      0.756714     Biso  1.000000 H
   H339       1.0     0.270964      0.486113      0.929067     Biso  1.000000 H
   H340       1.0     0.290011      0.494807      0.576378     Biso  1.000000 H
   H341       1.0     0.262006      0.494157      0.797590     Biso  1.000000 H
   H342       1.0     0.541879      0.483408      0.521287     Biso  1.000000 H
   H343       1.0     0.506298      0.429282      0.779305     Biso  1.000000 H
   H344       1.0     0.532928      0.429172      0.667160     Biso  1.000000 H
   H345       1.0     0.728887      0.434603      0.713943     Biso  1.000000 H
   H346       1.0     0.709215      0.456955      0.896255     Biso  1.000000 H
   H347       1.0     0.704094      0.431791      0.601497     Biso  1.000000 H
   H348       1.0     0.533910      0.449389      0.943498     Biso  1.000000 H
   H349       1.0     0.620746      0.461003      0.958521     Biso  1.000000 H
   H350       1.0     0.635404      0.452747      0.548800     Biso  1.000000 H
   H351       1.0     0.695966      0.462228      0.740716     Biso  1.000000 H
   H352       1.0     0.518735      0.446030      0.779990     Biso  1.000000 H
   H353       1.0     0.671278      0.433845      0.704415     Biso  1.000000 H
   H354       1.0     0.730680      0.456992      0.557872     Biso  1.000000 H
   H355       1.0     0.554999      0.487479      0.636148     Biso  1.000000 H
   H356       1.0     0.597032      0.494176      0.731252     Biso  1.000000 H
   H357       1.0     0.681109      0.478595      0.652103     Biso  1.000000 H
   H358       1.0     0.723522      0.485143      0.891795     Biso  1.000000 H
   H359       1.0     0.632627      0.489619      0.942285     Biso  1.000000 H
   H360       1.0     0.606713      0.478748      0.516621     Biso  1.000000 H
   H361       1.0     0.591335      0.484376      0.832734     Biso  1.000000 H
   H362       1.0     0.611995      0.498636      0.635263     Biso  1.000000 H
   H363       1.0     0.535930      0.473288      0.724640     Biso  1.000000 H
   H364       1.0     0.652481      0.490191      0.799066     Biso  1.000000 H
   H365       1.0     0.665467      0.476191      0.521554     Biso  1.000000 H
   H366       1.0     0.765122      0.438922      0.804519     Biso  1.000000 H
   H367       1.0     0.840909      0.449499      0.722123     Biso  1.000000 H
   H368       1.0     0.763862      0.485207      0.681254     Biso  1.000000 H
   H369       1.0     0.860712      0.477433      0.732445     Biso  1.000000 H
   H370       1.0     0.845920      0.492869      0.538384     Biso  1.000000 H
   H371       1.0     0.821885      0.464941      0.547033     Biso  1.000000 H
   H372       1.0     0.171483      0.527660      0.513044     Biso  1.000000 H
   H373       1.0     0.022202      0.518217      0.661586     Biso  1.000000 H
   H374       1.0     0.133019      0.534719      0.757415     Biso  1.000000 H
   H375       1.0     0.186255      0.514601      0.661551     Biso  1.000000 H
   H376       1.0     0.164173      0.514824      0.871493     Biso  1.000000 H
   H377       1.0     0.202434      0.514313      0.971574     Biso  1.000000 H
   H378       1.0     0.230609      0.512104      0.860664     Biso  1.000000 H
   H379       1.0     0.070198      0.538848      0.719448     Biso  1.000000 H
   H380       1.0     0.122634      0.540685      0.640879     Biso  1.000000 H
   H381       1.0     0.167441      0.557387      0.961593     Biso  1.000000 H
   H382       1.0     0.136642      0.554571      0.729217     Biso  1.000000 H
   H383       1.0     0.211056      0.535810      0.737510     Biso  1.000000 H
   H384       1.0     0.457184      0.547416      0.500879     Biso  1.000000 H
   H385       1.0     0.361714      0.503601      0.734516     Biso  1.000000 H
   H386       1.0     0.413000      0.524813      0.501390     Biso  1.000000 H
   H387       1.0     0.358786      0.520535      0.996911     Biso  1.000000 H
   H388       1.0     0.261086      0.522313      0.630368     Biso  1.000000 H
   H389       1.0     0.436770      0.507716      0.767807     Biso  1.000000 H
   H390       1.0     0.394490      0.504710      0.828421     Biso  1.000000 H
   H391       1.0     0.409692      0.500047      0.940521     Biso  1.000000 H
   H392       1.0     0.458434      0.501163      0.859052     Biso  1.000000 H
   H393       1.0     0.433152      0.534545      0.569641     Biso  1.000000 H
   H394       1.0     0.252183      0.569034      0.976934     Biso  1.000000 H
   H395       1.0     0.464882      0.544128      0.672044     Biso  1.000000 H
   H396       1.0     0.350780      0.562132      0.928096     Biso  1.000000 H
   H397       1.0     0.400449      0.546552      0.805520     Biso  1.000000 H
   H398       1.0     0.458217      0.560696      0.702719     Biso  1.000000 H
   H399       1.0     0.288633      0.547379      0.642730     Biso  1.000000 H
   H400       1.0     0.335807      0.552064      0.727154     Biso  1.000000 H
   H401       1.0     0.351569      0.550401      0.612498     Biso  1.000000 H
   H402       1.0     0.267256      0.567718      0.507120     Biso  1.000000 H
   H403       1.0     0.256857      0.538814      0.521273     Biso  1.000000 H
   H404       1.0     0.292948      0.546202      0.778263     Biso  1.000000 H
   H405       1.0     0.370335      0.565055      0.520446     Biso  1.000000 H
   H406       1.0     0.508345      0.538378      0.759937     Biso  1.000000 H
   H407       1.0     0.526454      0.528386      0.535532     Biso  1.000000 H
   H408       1.0     0.554455      0.518643      0.623976     Biso  1.000000 H
   H409       1.0     0.635419      0.524736      0.655146     Biso  1.000000 H
   H410       1.0     0.539247      0.512917      0.827989     Biso  1.000000 H
   H411       1.0     0.535887      0.519284      0.943678     Biso  1.000000 H
   H412       1.0     0.594964      0.515665      0.892939     Biso  1.000000 H
   H413       1.0     0.689022      0.504649      0.504426     Biso  1.000000 H
   H414       1.0     0.705418      0.564363      0.884811     Biso  1.000000 H
   H415       1.0     0.527918      0.538720      0.642996     Biso  1.000000 H
   H416       1.0     0.696959      0.541961      0.621299     Biso  1.000000 H
   H417       1.0     0.720175      0.545188      0.736186     Biso  1.000000 H
   H418       1.0     0.531416      0.558573      0.967095     Biso  1.000000 H
   H419       1.0     0.619914      0.569166      0.949376     Biso  1.000000 H
   H420       1.0     0.637843      0.564935      0.507386     Biso  1.000000 H
   H421       1.0     0.615307      0.536203      0.525511     Biso  1.000000 H
   H422       1.0     0.514237      0.558592      0.780556     Biso  1.000000 H
   H423       1.0     0.667638      0.546368      0.713033     Biso  1.000000 H
   H424       1.0     0.578609      0.537832      0.735648     Biso  1.000000 H
   H425       1.0     0.745981      0.565933      0.545025     Biso  1.000000 H
   H426       1.0     0.762961      0.525429      0.561471     Biso  1.000000 H
   H427       1.0     0.781076      0.508162      0.783155     Biso  1.000000 H
   H428       1.0     0.795246      0.514492      0.665866     Biso  1.000000 H
   H429       1.0     0.789986      0.504183      0.902367     Biso  1.000000 H
   H430       1.0     0.844537      0.503126      0.826809     Biso  1.000000 H
   H431       1.0     0.825608      0.519793      0.535093     Biso  1.000000 H
   H432       1.0     0.772069      0.547467      0.812649     Biso  1.000000 H
   H433       1.0     0.843142      0.559045      0.730285     Biso  1.000000 H
   H434       1.0     0.762809      0.540991      0.646719     Biso  1.000000 H
   H435       1.0     0.172613      0.596855      0.506202     Biso  1.000000 H
   H436       1.0     0.174294      0.638543      0.507607     Biso  1.000000 H
   H437       1.0     0.093048      0.587949      0.589518     Biso  1.000000 H
   H438       1.0     0.178306      0.598664      0.618659     Biso  1.000000 H
   H439       1.0     0.106543      0.601179      0.872119     Biso  1.000000 H
   H440       1.0     0.093702      0.572938      0.908395     Biso  1.000000 H
   H441       1.0     0.236833      0.591257      0.514543     Biso  1.000000 H
   H442       1.0     0.152407      0.582505      0.724083     Biso  1.000000 H
   H443       1.0     0.026482      0.631915      0.668965     Biso  1.000000 H
   H444       1.0     0.015444      0.604220      0.614433     Biso  1.000000 H
   H445       1.0     0.187662      0.626924      0.658229     Biso  1.000000 H
   H446       1.0     0.167662      0.622319      0.840874     Biso  1.000000 H
   H447       1.0     0.186988      0.625289      0.957703     Biso  1.000000 H
   H448       1.0     0.232417      0.620497      0.873366     Biso  1.000000 H
   H449       1.0     0.200441      0.596433      0.796908     Biso  1.000000 H
   H450       1.0     0.225440      0.604680      0.695415     Biso  1.000000 H
   H451       1.0     0.420818      0.635221      0.501727     Biso  1.000000 H
   H452       1.0     0.476387      0.588013      0.597414     Biso  1.000000 H
   H453       1.0     0.338382      0.611935      0.765577     Biso  1.000000 H
   H454       1.0     0.393531      0.586830      0.707032     Biso  1.000000 H
   H455       1.0     0.470153      0.604449      0.942085     Biso  1.000000 H
   H456       1.0     0.458981      0.577121      0.967202     Biso  1.000000 H
   H457       1.0     0.353811      0.590752      0.924272     Biso  1.000000 H
   H458       1.0     0.475720      0.588920      0.729359     Biso  1.000000 H
   H459       1.0     0.264969      0.597366      0.952796     Biso  1.000000 H
   H460       1.0     0.291472      0.604882      0.571665     Biso  1.000000 H
   H461       1.0     0.315780      0.574605      0.735983     Biso  1.000000 H
   H462       1.0     0.304164      0.585613      0.504421     Biso  1.000000 H
   H463       1.0     0.381154      0.593819      0.596380     Biso  1.000000 H
   H464       1.0     0.263338      0.632857      0.634568     Biso  1.000000 H
   H465       1.0     0.397294      0.615462      0.792135     Biso  1.000000 H
   H466       1.0     0.412718      0.613705      0.908797     Biso  1.000000 H
   H467       1.0     0.461251      0.613715      0.823640     Biso  1.000000 H
   H468       1.0     0.267085      0.601427      0.791526     Biso  1.000000 H
   H469       1.0     0.538172      0.594888      0.502648     Biso  1.000000 H
   H470       1.0     0.533241      0.636954      0.509894     Biso  1.000000 H
   H471       1.0     0.559969      0.600407      0.634025     Biso  1.000000 H
   H472       1.0     0.682260      0.589043      0.654482     Biso  1.000000 H
   H473       1.0     0.712668      0.592952      0.875636     Biso  1.000000 H
   H474       1.0     0.632523      0.597249      0.924234     Biso  1.000000 H
   H475       1.0     0.604046      0.591683      0.518488     Biso  1.000000 H
   H476       1.0     0.615058      0.609644      0.637806     Biso  1.000000 H
   H477       1.0     0.533100      0.585713      0.760715     Biso  1.000000 H
   H478       1.0     0.691541      0.574126      0.740984     Biso  1.000000 H
   H479       1.0     0.676833      0.584941      0.530588     Biso  1.000000 H
   H480       1.0     0.562122      0.629043      0.667244     Biso  1.000000 H
   H481       1.0     0.637841      0.636456      0.666501     Biso  1.000000 H
   H482       1.0     0.607658      0.607284      0.721057     Biso  1.000000 H
   H483       1.0     0.542285      0.622276      0.822687     Biso  1.000000 H
   H484       1.0     0.539274      0.627628      0.940159     Biso  1.000000 H
   H485       1.0     0.598549      0.623421      0.889576     Biso  1.000000 H
   H486       1.0     0.580697      0.600612      0.811870     Biso  1.000000 H
   H487       1.0     0.648760      0.601972      0.811937     Biso  1.000000 H
   H488       1.0     0.699920      0.613203      0.544908     Biso  1.000000 H
   H489       1.0     0.776340      0.618895      0.797598     Biso  1.000000 H
   H490       1.0     0.770523      0.597760      0.671856     Biso  1.000000 H
   H491       1.0     0.853524      0.588312      0.726660     Biso  1.000000 H
   H492       1.0     0.837086      0.574777      0.532265     Biso  1.000000 H
   H493       1.0     0.795121      0.624687      0.674730     Biso  1.000000 H
   H494       1.0     0.789688      0.611225      0.915463     Biso  1.000000 H
   H495       1.0     0.839109      0.612218      0.834304     Biso  1.000000 H
   H496       1.0     0.858577      0.602641      0.535987     Biso  1.000000 H
   H497       1.0     0.773194      0.634603      0.556275     Biso  1.000000 H
   H498       1.0     0.098617      0.656022      0.505632     Biso  1.000000 H
   H499       1.0     0.083050      0.654926      0.664498     Biso  1.000000 H
   H500       1.0     0.105170      0.650027      0.775517     Biso  1.000000 H
   H501       1.0     0.148485      0.652183      0.683431     Biso  1.000000 H
   H502       1.0     0.213333      0.651822      0.759083     Biso  1.000000 H
   H503       1.0     0.085657      0.690205      0.918299     Biso  1.000000 H
   H504       1.0     0.155255      0.671181      0.949158     Biso  1.000000 H
   H505       1.0     0.111822      0.684254      0.510609     Biso  1.000000 H
   H506       1.0     0.207081      0.702849      0.588737     Biso  1.000000 H
   H507       1.0     0.173368      0.699785      0.720081     Biso  1.000000 H
   H508       1.0     0.146552      0.672239      0.743195     Biso  1.000000 H
   H509       1.0     0.243713      0.680573      0.965846     Biso  1.000000 H
   H510       1.0     0.413952      0.663891      0.648107     Biso  1.000000 H
   H511       1.0     0.474891      0.655592      0.719892     Biso  1.000000 H
   H512       1.0     0.401608      0.660114      0.807709     Biso  1.000000 H
   H513       1.0     0.290158      0.656326      0.629587     Biso  1.000000 H
   H514       1.0     0.344573      0.664316      0.686523     Biso  1.000000 H
   H515       1.0     0.347558      0.659120      0.569820     Biso  1.000000 H
   H516       1.0     0.303010      0.658969      0.760187     Biso  1.000000 H
   H517       1.0     0.450400      0.687398      0.942578     Biso  1.000000 H
   H518       1.0     0.351748      0.705739      0.886876     Biso  1.000000 H
   H519       1.0     0.350822      0.676652      0.905826     Biso  1.000000 H
   H520       1.0     0.470568      0.700891      0.680681     Biso  1.000000 H
   H521       1.0     0.456975      0.671803      0.683136     Biso  1.000000 H
   H522       1.0     0.267450      0.707580      0.921358     Biso  1.000000 H
   H523       1.0     0.330013      0.685955      0.707699     Biso  1.000000 H
   H524       1.0     0.305014      0.692205      0.557784     Biso  1.000000 H
   H525       1.0     0.468404      0.687952      0.575745     Biso  1.000000 H
   H526       1.0     0.382237      0.676727      0.589487     Biso  1.000000 H
   H527       1.0     0.310500      0.712265      0.704413     Biso  1.000000 H
   H528       1.0     0.534406      0.647371      0.745073     Biso  1.000000 H
   H529       1.0     0.515934      0.649547      0.627955     Biso  1.000000 H
   H530       1.0     0.681620      0.651923      0.631788     Biso  1.000000 H
   H531       1.0     0.733009      0.656899      0.706848     Biso  1.000000 H
   H532       1.0     0.619976      0.648918      0.526596     Biso  1.000000 H
   H533       1.0     0.670203      0.659170      0.706231     Biso  1.000000 H
   H534       1.0     0.586758      0.651323      0.751182     Biso  1.000000 H
   H535       1.0     0.709177      0.705229      0.854515     Biso  1.000000 H
   H536       1.0     0.708936      0.676394      0.876681     Biso  1.000000 H
   H537       1.0     0.522023      0.668617      0.968957     Biso  1.000000 H
   H538       1.0     0.628187      0.706335      0.926747     Biso  1.000000 H
   H539       1.0     0.611668      0.678642      0.965169     Biso  1.000000 H
   H540       1.0     0.628904      0.677520      0.505127     Biso  1.000000 H
   H541       1.0     0.539174      0.704220      0.556887     Biso  1.000000 H
   H542       1.0     0.541661      0.699459      0.767785     Biso  1.000000 H
   H543       1.0     0.693928      0.687095      0.680974     Biso  1.000000 H
   H544       1.0     0.521703      0.671640      0.800423     Biso  1.000000 H
   H545       1.0     0.654312      0.694575      0.535073     Biso  1.000000 H
   H546       1.0     0.723575      0.675177      0.515469     Biso  1.000000 H
   H547       1.0     0.743780      0.649196      0.595416     Biso  1.000000 H
   H548       1.0     0.671590      0.712736      0.684485     Biso  1.000000 H
   H549       1.0     0.780382      0.660581      0.819986     Biso  1.000000 H
   H550       1.0     0.850303      0.701876      0.708882     Biso  1.000000 H
   H551       1.0     0.850378      0.673167      0.725234     Biso  1.000000 H
   H552       1.0     0.815806      0.684181      0.522222     Biso  1.000000 H
   H553       1.0     0.831480      0.712836      0.512078     Biso  1.000000 H
   H554       1.0     0.110879      0.716791      0.860755     Biso  1.000000 H
   H555       1.0     0.171637      0.736259      0.827473     Biso  1.000000 H
   H556       1.0     0.203166      0.738064      0.936543     Biso  1.000000 H
   H557       1.0     0.237060      0.732704      0.837783     Biso  1.000000 H
   H558       1.0     0.468050      0.714732      0.908932     Biso  1.000000 H
   H559       1.0     0.258043      0.715897      0.630425     Biso  1.000000 H
   H560       1.0     0.251565      0.717997      0.750392     Biso  1.000000 H
   H561       1.0     0.395345      0.727725      0.723560     Biso  1.000000 H
   H562       1.0     0.420576      0.728251      0.837051     Biso  1.000000 H
   H563       1.0     0.460473      0.723758      0.741597     Biso  1.000000 H
   H564       1.0     0.315531      0.720905      0.529946     Biso  1.000000 H
   H565       1.0     0.478388      0.715904      0.533298     Biso  1.000000 H
   H566       1.0     0.401653      0.742310      0.548846     Biso  1.000000 H
   H567       1.0     0.543409      0.729613      0.795688     Biso  1.000000 H
   H568       1.0     0.534208      0.736391      0.909700     Biso  1.000000 H
   H569       1.0     0.596301      0.731701      0.870221     Biso  1.000000 H
   H570       1.0     0.607122      0.717877      0.678476     Biso  1.000000 H
   H571       1.0     0.638483      0.716598      0.788352     Biso  1.000000 H
   H572       1.0     0.671875      0.722545      0.539106     Biso  1.000000 H
   H573       1.0     0.754009      0.727621      0.728545     Biso  1.000000 H
   H574       1.0     0.766764      0.727349      0.848064     Biso  1.000000 H
   H575       1.0     0.817529      0.727891      0.766221     Biso  1.000000 H
   H576       1.0     0.752959      0.737368      0.577025     Biso  1.000000 H
   Ni1        1.0     0.071429      0.058249      0.125000     Biso  1.000000 Ni
   Ni2        1.0     0.142857      0.058249      0.000000     Biso  1.000000 Ni
   Ni3        1.0     0.214286      0.058249      0.125000     Biso  1.000000 Ni
   Ni4        1.0     0.071429      0.058249      0.375000     Biso  1.000000 Ni
   Ni5        1.0     0.142857      0.058249      0.250000     Biso  1.000000 Ni
   Ni6        1.0     0.214286      0.058249      0.375000     Biso  1.000000 Ni
   Ni7        1.0     0.142857      0.058249      0.500000     Biso  1.000000 Ni
   Ni8        1.0     0.285714      0.058249      0.000000     Biso  1.000000 Ni
   Ni9        1.0     0.357143      0.058249      0.125000     Biso  1.000000 Ni
   Ni10       1.0     0.428571      0.058249      0.000000     Biso  1.000000 Ni
   Ni11       1.0     0.285714      0.058249      0.250000     Biso  1.000000 Ni
   Ni12       1.0     0.357143      0.058249      0.375000     Biso  1.000000 Ni
   Ni13       1.0     0.428571      0.058249      0.250000     Biso  1.000000 Ni
   Ni14       1.0     0.500000      0.058249      0.125000     Biso  1.000000 Ni
   Ni15       1.0     0.500000      0.058249      0.375000     Biso  1.000000 Ni
   Ni16       1.0     0.285714      0.058249      0.500000     Biso  1.000000 Ni
   Ni17       1.0     0.428571      0.058249      0.500000     Biso  1.000000 Ni
   Ni18       1.0     0.571429      0.058249      0.000000     Biso  1.000000 Ni
   Ni19       1.0     0.642857      0.058249      0.125000     Biso  1.000000 Ni
   Ni20       1.0     0.714286      0.058249      0.000000     Biso  1.000000 Ni
   Ni21       1.0     0.571429      0.058249      0.250000     Biso  1.000000 Ni
   Ni22       1.0     0.642857      0.058249      0.375000     Biso  1.000000 Ni
   Ni23       1.0     0.714286      0.058249      0.250000     Biso  1.000000 Ni
   Ni24       1.0     0.571429      0.058249      0.500000     Biso  1.000000 Ni
   Ni25       1.0     0.714286      0.058249      0.500000     Biso  1.000000 Ni
   Ni26       1.0     1.000000      0.058249      0.000000     Biso  1.000000 Ni
   Ni27       1.0     1.000000      0.058249      0.250000     Biso  1.000000 Ni
   Ni28       1.0     0.785714      0.058249      0.125000     Biso  1.000000 Ni
   Ni29       1.0     0.857143      0.058249      0.000000     Biso  1.000000 Ni
   Ni30       1.0     0.928571      0.058249      0.125000     Biso  1.000000 Ni
   Ni31       1.0     0.785714      0.058249      0.375000     Biso  1.000000 Ni
   Ni32       1.0     0.857143      0.058249      0.250000     Biso  1.000000 Ni
   Ni33       1.0     0.928571      0.058249      0.375000     Biso  1.000000 Ni
   Ni34       1.0     1.000000      0.058249      0.500000     Biso  1.000000 Ni
   Ni35       1.0     0.857143      0.058249      0.500000     Biso  1.000000 Ni
   Ni36       1.0     0.142857      0.079574      0.125000     Biso  1.000000 Ni
   Ni37       1.0     0.071429      0.123094      0.000000     Biso  1.000000 Ni
   Ni38       1.0     0.071429      0.101149      0.125000     Biso  1.000000 Ni
   Ni39       1.0     0.214286      0.101149      0.125000     Biso  1.000000 Ni
   Ni40       1.0     0.142857      0.123094      0.125000     Biso  1.000000 Ni
   Ni41       1.0     0.071429      0.079574      0.250000     Biso  1.000000 Ni
   Ni42       1.0     0.214286      0.079574      0.250000     Biso  1.000000 Ni
   Ni43       1.0     0.142857      0.079574      0.375000     Biso  1.000000 Ni
   Ni44       1.0     0.071429      0.123094      0.250000     Biso  1.000000 Ni
   Ni45       1.0     0.071429      0.101149      0.375000     Biso  1.000000 Ni
   Ni46       1.0     0.142857      0.101149      0.250000     Biso  1.000000 Ni
   Ni47       1.0     0.214286      0.123094      0.250000     Biso  1.000000 Ni
   Ni48       1.0     0.214286      0.101149      0.375000     Biso  1.000000 Ni
   Ni49       1.0     0.142857      0.123094      0.375000     Biso  1.000000 Ni
   Ni50       1.0     0.071429      0.079574      0.000000     Biso  1.000000 Ni
   Ni51       1.0     0.214286      0.079574      0.000000     Biso  1.000000 Ni
   Ni52       1.0     0.142857      0.101149      0.000000     Biso  1.000000 Ni
   Ni53       1.0     0.071429      0.079574      0.500000     Biso  1.000000 Ni
   Ni54       1.0     0.214286      0.079574      0.500000     Biso  1.000000 Ni
   Ni55       1.0     0.142857      0.101149      0.500000     Biso  1.000000 Ni
   Ni56       1.0     0.285714      0.079574      0.125000     Biso  1.000000 Ni
   Ni57       1.0     0.428571      0.079574      0.125000     Biso  1.000000 Ni
   Ni58       1.0     0.357143      0.101149      0.125000     Biso  1.000000 Ni
   Ni59       1.0     0.285714      0.123094      0.125000     Biso  1.000000 Ni
   Ni60       1.0     0.428571      0.123094      0.125000     Biso  1.000000 Ni
   Ni61       1.0     0.357143      0.079574      0.250000     Biso  1.000000 Ni
   Ni62       1.0     0.285714      0.079574      0.375000     Biso  1.000000 Ni
   Ni63       1.0     0.428571      0.079574      0.375000     Biso  1.000000 Ni
   Ni64       1.0     0.285714      0.101149      0.250000     Biso  1.000000 Ni
   Ni65       1.0     0.357143      0.123094      0.250000     Biso  1.000000 Ni
   Ni66       1.0     0.357143      0.101149      0.375000     Biso  1.000000 Ni
   Ni67       1.0     0.285714      0.123094      0.375000     Biso  1.000000 Ni
   Ni68       1.0     0.428571      0.101149      0.250000     Biso  1.000000 Ni
   Ni69       1.0     0.428571      0.123094      0.375000     Biso  1.000000 Ni
   Ni70       1.0     0.357143      0.079574      0.000000     Biso  1.000000 Ni
   Ni71       1.0     0.500000      0.079574      0.250000     Biso  1.000000 Ni
   Ni72       1.0     0.500000      0.079574      0.000000     Biso  1.000000 Ni
   Ni73       1.0     0.500000      0.101149      0.375000     Biso  1.000000 Ni
   Ni74       1.0     0.357143      0.079574      0.500000     Biso  1.000000 Ni
   Ni75       1.0     0.285714      0.101149      0.500000     Biso  1.000000 Ni
   Ni76       1.0     0.428571      0.101149      0.500000     Biso  1.000000 Ni
   Ni77       1.0     0.500000      0.079574      0.500000     Biso  1.000000 Ni
   Ni78       1.0     0.500000      0.101149      0.125000     Biso  1.000000 Ni
   Ni79       1.0     0.500000      0.123094      0.250000     Biso  1.000000 Ni
   Ni80       1.0     0.571429      0.079574      0.125000     Biso  1.000000 Ni
   Ni81       1.0     0.714286      0.079574      0.125000     Biso  1.000000 Ni
   Ni82       1.0     0.642857      0.123094      0.000000     Biso  1.000000 Ni
   Ni83       1.0     0.642857      0.101149      0.125000     Biso  1.000000 Ni
   Ni84       1.0     0.571429      0.123094      0.125000     Biso  1.000000 Ni
   Ni85       1.0     0.714286      0.123094      0.125000     Biso  1.000000 Ni
   Ni86       1.0     0.642857      0.079574      0.250000     Biso  1.000000 Ni
   Ni87       1.0     0.571429      0.079574      0.375000     Biso  1.000000 Ni
   Ni88       1.0     0.714286      0.079574      0.375000     Biso  1.000000 Ni
   Ni89       1.0     0.571429      0.101149      0.250000     Biso  1.000000 Ni
   Ni90       1.0     0.642857      0.123094      0.250000     Biso  1.000000 Ni
   Ni91       1.0     0.642857      0.101149      0.375000     Biso  1.000000 Ni
   Ni92       1.0     0.571429      0.123094      0.375000     Biso  1.000000 Ni
   Ni93       1.0     0.714286      0.101149      0.250000     Biso  1.000000 Ni
   Ni94       1.0     0.714286      0.123094      0.375000     Biso  1.000000 Ni
   Ni95       1.0     0.642857      0.079574      0.000000     Biso  1.000000 Ni
   Ni96       1.0     0.571429      0.101149      0.000000     Biso  1.000000 Ni
   Ni97       1.0     0.714286      0.101149      0.000000     Biso  1.000000 Ni
   Ni98       1.0     0.642857      0.123094      0.500000     Biso  1.000000 Ni
   Ni99       1.0     0.571429      0.101149      0.500000     Biso  1.000000 Ni
   Ni100      1.0     0.714286      0.101149      0.500000     Biso  1.000000 Ni
   Ni101      1.0     1.000000      0.079574      0.125000     Biso  1.000000 Ni
   Ni102      1.0     1.000000      0.123094      0.125000     Biso  1.000000 Ni
   Ni103      1.0     1.000000      0.079574      0.375000     Biso  1.000000 Ni
   Ni104      1.0     1.000000      0.101149      0.250000     Biso  1.000000 Ni
   Ni105      1.0     1.000000      0.123094      0.375000     Biso  1.000000 Ni
   Ni106      1.0     1.000000      0.101149      0.000000     Biso  1.000000 Ni
   Ni107      1.0     0.857143      0.079574      0.125000     Biso  1.000000 Ni
   Ni108      1.0     0.785714      0.101149      0.125000     Biso  1.000000 Ni
   Ni109      1.0     0.928571      0.101149      0.125000     Biso  1.000000 Ni
   Ni110      1.0     0.857143      0.123094      0.125000     Biso  1.000000 Ni
   Ni111      1.0     0.785714      0.079574      0.250000     Biso  1.000000 Ni
   Ni112      1.0     0.928571      0.079574      0.250000     Biso  1.000000 Ni
   Ni113      1.0     0.857143      0.079574      0.375000     Biso  1.000000 Ni
   Ni114      1.0     0.785714      0.123094      0.250000     Biso  1.000000 Ni
   Ni115      1.0     0.785714      0.101149      0.375000     Biso  1.000000 Ni
   Ni116      1.0     0.857143      0.101149      0.250000     Biso  1.000000 Ni
   Ni117      1.0     0.928571      0.123094      0.250000     Biso  1.000000 Ni
   Ni118      1.0     0.928571      0.101149      0.375000     Biso  1.000000 Ni
   Ni119      1.0     0.857143      0.123094      0.375000     Biso  1.000000 Ni
   Ni120      1.0     0.785714      0.079574      0.000000     Biso  1.000000 Ni
   Ni121      1.0     0.928571      0.079574      0.000000     Biso  1.000000 Ni
   Ni122      1.0     0.857143      0.101149      0.000000     Biso  1.000000 Ni
   Ni123      1.0     1.000000      0.101149      0.500000     Biso  1.000000 Ni
   Ni124      1.0     0.785714      0.123094      0.500000     Biso  1.000000 Ni
   Ni125      1.0     0.928571      0.079574      0.500000     Biso  1.000000 Ni
   Ni126      1.0     0.857143      0.101149      0.500000     Biso  1.000000 Ni
   Ni127      1.0     0.785714      0.079574      0.500000     Biso  1.000000 Ni
   Ni128      1.0     0.071429      0.145205      0.125000     Biso  1.000000 Ni
   Ni129      1.0     0.214286      0.145204      0.125000     Biso  1.000000 Ni
   Ni130      1.0     0.142857      0.167321      0.124997     Biso  1.000000 Ni
   Ni131      1.0     0.071428      0.189302      0.125000     Biso  1.000000 Ni
   Ni132      1.0     0.214286      0.189301      0.125002     Biso  1.000000 Ni
   Ni133      1.0     0.071428      0.167321      0.250002     Biso  1.000000 Ni
   Ni134      1.0     0.071429      0.145204      0.375000     Biso  1.000000 Ni
   Ni135      1.0     0.142857      0.145205      0.250000     Biso  1.000000 Ni
   Ni136      1.0     0.214286      0.167321      0.250000     Biso  1.000000 Ni
   Ni137      1.0     0.214286      0.145204      0.375000     Biso  1.000000 Ni
   Ni138      1.0     0.142857      0.167321      0.375004     Biso  1.000000 Ni
   Ni139      1.0     0.071428      0.189303      0.375015     Biso  1.000000 Ni
   Ni140      1.0     0.142857      0.189299      0.249992     Biso  1.000000 Ni
   Ni141      1.0     0.214289      0.189301      0.375000     Biso  1.000000 Ni
   Ni142      1.0     0.142858      0.210957      0.125009     Biso  1.000000 Ni
   Ni143      1.0     0.071427      0.210958      0.250006     Biso  1.000000 Ni
   Ni144      1.0     0.000006      0.210960      0.375018     Biso  1.000000 Ni
   Ni145      1.0     0.214293      0.210959      0.250001     Biso  1.000000 Ni
   Ni146      1.0     0.142865      0.210948      0.374944     Biso  1.000000 Ni
   Ni147      1.0     0.000000      0.167321      0.375003     Biso  1.000000 Ni
   Ni148      1.0     0.000001      0.189302      0.250005     Biso  1.000000 Ni
   Ni149      1.0     0.000000      0.167321      0.124999     Biso  1.000000 Ni
   Ni150      1.0     0.214277      0.210957      0.000006     Biso  1.000000 Ni
   Ni151      1.0     0.214335      0.210961      0.499991     Biso  1.000000 Ni
   Ni152      1.0     0.214285      0.167320      0.000001     Biso  1.000000 Ni
   Ni153      1.0     0.357143      0.145204      0.125000     Biso  1.000000 Ni
   Ni154      1.0     0.285714      0.167320      0.125004     Biso  1.000000 Ni
   Ni155      1.0     0.428571      0.167321      0.125000     Biso  1.000000 Ni
   Ni156      1.0     0.357143      0.189302      0.125000     Biso  1.000000 Ni
   Ni157      1.0     0.285714      0.145204      0.250000     Biso  1.000000 Ni
   Ni158      1.0     0.357143      0.167320      0.249996     Biso  1.000000 Ni
   Ni159      1.0     0.357143      0.145204      0.375000     Biso  1.000000 Ni
   Ni160      1.0     0.285714      0.167320      0.374998     Biso  1.000000 Ni
   Ni161      1.0     0.428571      0.145204      0.250000     Biso  1.000000 Ni
   Ni162      1.0     0.428572      0.167320      0.374999     Biso  1.000000 Ni
   Ni163      1.0     0.285714      0.189303      0.250003     Biso  1.000000 Ni
   Ni164      1.0     0.357142      0.189296      0.374968     Biso  1.000000 Ni
   Ni165      1.0     0.428574      0.189300      0.249995     Biso  1.000000 Ni
   Ni166      1.0     0.285715      0.210959      0.124996     Biso  1.000000 Ni
   Ni167      1.0     0.428573      0.210958      0.125002     Biso  1.000000 Ni
   Ni168      1.0     0.357142      0.210957      0.250001     Biso  1.000000 Ni
   Ni169      1.0     0.285713      0.210966      0.375024     Biso  1.000000 Ni
   Ni170      1.0     0.428587      0.210951      0.374961     Biso  1.000000 Ni
   Ni171      1.0     0.428574      0.189302      0.000001     Biso  1.000000 Ni
   Ni172      1.0     0.357122      0.210936      0.499851     Biso  1.000000 Ni
   Ni173      1.0     0.285714      0.189297      0.000023     Biso  1.000000 Ni
   Ni174      1.0     0.428579      0.189299      0.499988     Biso  1.000000 Ni
   Ni175      1.0     0.357143      0.167320      0.000003     Biso  1.000000 Ni
   Ni176      1.0     0.285711      0.189296      0.499991     Biso  1.000000 Ni
   Ni177      1.0     0.500000      0.145205      0.125000     Biso  1.000000 Ni
   Ni178      1.0     0.500001      0.167321      0.250001     Biso  1.000000 Ni
   Ni179      1.0     0.500007      0.189301      0.375003     Biso  1.000000 Ni
   Ni180      1.0     0.500007      0.210959      0.250015     Biso  1.000000 Ni
   Ni181      1.0     0.500003      0.189302      0.125001     Biso  1.000000 Ni
   Ni182      1.0     0.500000      0.145204      0.375000     Biso  1.000000 Ni
   Ni183      1.0     0.642857      0.145205      0.125000     Biso  1.000000 Ni
   Ni184      1.0     0.571430      0.167321      0.124999     Biso  1.000000 Ni
   Ni185      1.0     0.714286      0.167323      0.124986     Biso  1.000000 Ni
   Ni186      1.0     0.642861      0.189303      0.124989     Biso  1.000000 Ni
   Ni187      1.0     0.571429      0.145205      0.250000     Biso  1.000000 Ni
   Ni188      1.0     0.642857      0.167322      0.250006     Biso  1.000000 Ni
   Ni189      1.0     0.642857      0.145204      0.375000     Biso  1.000000 Ni
   Ni190      1.0     0.571431      0.167321      0.375005     Biso  1.000000 Ni
   Ni191      1.0     0.714286      0.145205      0.250000     Biso  1.000000 Ni
   Ni192      1.0     0.714285      0.167323      0.375011     Biso  1.000000 Ni
   Ni193      1.0     0.571432      0.189303      0.250010     Biso  1.000000 Ni
   Ni194      1.0     0.642859      0.189309      0.375048     Biso  1.000000 Ni
   Ni195      1.0     0.714283      0.189302      0.250009     Biso  1.000000 Ni
   Ni196      1.0     0.571433      0.210958      0.124998     Biso  1.000000 Ni
   Ni197      1.0     0.714286      0.210959      0.125019     Biso  1.000000 Ni
   Ni198      1.0     0.642857      0.210960      0.250014     Biso  1.000000 Ni
   Ni199      1.0     0.571448      0.210965      0.375042     Biso  1.000000 Ni
   Ni200      1.0     0.714272      0.210963      0.375023     Biso  1.000000 Ni
   Ni201      1.0     0.714286      0.145204      0.000000     Biso  1.000000 Ni
   Ni202      1.0     0.500031      0.210958      0.499981     Biso  1.000000 Ni
   Ni203      1.0     0.714286      0.145204      0.500000     Biso  1.000000 Ni
   Ni204      1.0     1.000000      0.145205      0.250000     Biso  1.000000 Ni
   Ni205      1.0     1.000000      0.210957      0.125000     Biso  1.000000 Ni
   Ni206      1.0     0.785714      0.145205      0.124999     Biso  1.000000 Ni
   Ni207      1.0     0.928571      0.145205      0.125000     Biso  1.000000 Ni
   Ni208      1.0     0.857142      0.167321      0.124997     Biso  1.000000 Ni
   Ni209      1.0     0.785710      0.189303      0.124988     Biso  1.000000 Ni
   Ni210      1.0     0.928571      0.189302      0.124997     Biso  1.000000 Ni
   Ni211      1.0     0.785714      0.167321      0.249998     Biso  1.000000 Ni
   Ni212      1.0     0.785714      0.145205      0.375000     Biso  1.000000 Ni
   Ni213      1.0     0.857143      0.145205      0.250000     Biso  1.000000 Ni
   Ni214      1.0     0.928571      0.167321      0.250000     Biso  1.000000 Ni
   Ni215      1.0     0.928571      0.145205      0.375000     Biso  1.000000 Ni
   Ni216      1.0     0.857143      0.167321      0.375001     Biso  1.000000 Ni
   Ni217      1.0     0.785710      0.189301      0.375001     Biso  1.000000 Ni
   Ni218      1.0     0.857141      0.189302      0.250000     Biso  1.000000 Ni
   Ni219      1.0     0.928572      0.189302      0.375004     Biso  1.000000 Ni
   Ni220      1.0     0.857136      0.210958      0.124990     Biso  1.000000 Ni
   Ni221      1.0     0.785709      0.210959      0.250018     Biso  1.000000 Ni
   Ni222      1.0     0.928572      0.210957      0.250002     Biso  1.000000 Ni
   Ni223      1.0     0.857141      0.210958      0.375004     Biso  1.000000 Ni
   Ni224      1.0     0.785700      0.210951      0.499991     Biso  1.000000 Ni
   Ni225      1.0     0.071430      0.232353      0.125002     Biso  1.000000 Ni
   Ni226      1.0     0.214291      0.232354      0.125005     Biso  1.000000 Ni
   Ni227      1.0     0.071438      0.232357      0.375055     Biso  1.000000 Ni
   Ni228      1.0     0.142859      0.232354      0.250022     Biso  1.000000 Ni
   Ni229      1.0     0.214327      0.232363      0.374952     Biso  1.000000 Ni
   Ni230      1.0     0.143024      0.232299      0.499735     Biso  1.000000 Ni
   Ni231      1.0     0.000004      0.232354      0.250007     Biso  1.000000 Ni
   Ni232      1.0     0.000001      0.232353      0.000001     Biso  1.000000 Ni
   Ni233      1.0     0.142854      0.232353      0.000009     Biso  1.000000 Ni
   Ni234      1.0     0.357142      0.232354      0.125005     Biso  1.000000 Ni
   Ni235      1.0     0.285727      0.232361      0.250022     Biso  1.000000 Ni
   Ni236      1.0     0.357182      0.232348      0.374946     Biso  1.000000 Ni
   Ni237      1.0     0.428580      0.232356      0.250012     Biso  1.000000 Ni
   Ni238      1.0     0.285790      0.232456      0.499858     Biso  1.000000 Ni
   Ni239      1.0     0.428521      0.232319      0.499877     Biso  1.000000 Ni
   Ni240      1.0     0.500011      0.232361      0.375058     Biso  1.000000 Ni
   Ni241      1.0     0.500002      0.232353      0.124996     Biso  1.000000 Ni
   Ni242      1.0     0.642854      0.232354      0.125009     Biso  1.000000 Ni
   Ni243      1.0     0.571433      0.232357      0.250024     Biso  1.000000 Ni
   Ni244      1.0     0.642886      0.232377      0.375051     Biso  1.000000 Ni
   Ni245      1.0     0.714282      0.232360      0.250018     Biso  1.000000 Ni
   Ni246      1.0     0.714279      0.232358      0.000033     Biso  1.000000 Ni
   Ni247      1.0     0.571496      0.232378      0.499999     Biso  1.000000 Ni
   Ni248      1.0     0.785713      0.232353      0.125009     Biso  1.000000 Ni
   Ni249      1.0     0.928567      0.232353      0.124995     Biso  1.000000 Ni
   Ni250      1.0     0.785697      0.232361      0.375039     Biso  1.000000 Ni
   Ni251      1.0     0.857139      0.232353      0.250012     Biso  1.000000 Ni
   Ni252      1.0     0.928575      0.232354      0.375002     Biso  1.000000 Ni
   Ni253      1.0     0.857150      0.232354      0.499982     Biso  1.000000 Ni
   Ni254      1.0     0.999992      0.232368      0.499985     Biso  1.000000 Ni
   Ni255      1.0     0.071429      0.058249      0.625000     Biso  1.000000 Ni
   Ni256      1.0     0.214286      0.058249      0.625000     Biso  1.000000 Ni
   Ni257      1.0     0.071429      0.058249      0.875000     Biso  1.000000 Ni
   Ni258      1.0     0.142857      0.058249      0.750000     Biso  1.000000 Ni
   Ni259      1.0     0.214286      0.058249      0.875000     Biso  1.000000 Ni
   Ni260      1.0     0.357143      0.058249      0.625000     Biso  1.000000 Ni
   Ni261      1.0     0.285714      0.058249      0.750000     Biso  1.000000 Ni
   Ni262      1.0     0.357143      0.058249      0.875000     Biso  1.000000 Ni
   Ni263      1.0     0.428571      0.058249      0.750000     Biso  1.000000 Ni
   Ni264      1.0     0.500000      0.058249      0.875000     Biso  1.000000 Ni
   Ni265      1.0     0.500000      0.058249      0.625000     Biso  1.000000 Ni
   Ni266      1.0     0.642857      0.058249      0.625000     Biso  1.000000 Ni
   Ni267      1.0     0.571429      0.058249      0.750000     Biso  1.000000 Ni
   Ni268      1.0     0.642857      0.058249      0.875000     Biso  1.000000 Ni
   Ni269      1.0     0.714286      0.058249      0.750000     Biso  1.000000 Ni
   Ni270      1.0     1.000000      0.058249      0.750000     Biso  1.000000 Ni
   Ni271      1.0     0.785714      0.058249      0.625000     Biso  1.000000 Ni
   Ni272      1.0     0.928571      0.058249      0.625000     Biso  1.000000 Ni
   Ni273      1.0     0.785714      0.058249      0.875000     Biso  1.000000 Ni
   Ni274      1.0     0.857143      0.058249      0.750000     Biso  1.000000 Ni
   Ni275      1.0     0.928571      0.058249      0.875000     Biso  1.000000 Ni
   Ni276      1.0     0.214286      0.123094      1.000000     Biso  1.000000 Ni
   Ni277      1.0     0.071429      0.123094      0.500000     Biso  1.000000 Ni
   Ni278      1.0     0.214286      0.123094      0.500000     Biso  1.000000 Ni
   Ni279      1.0     0.142857      0.079574      0.625000     Biso  1.000000 Ni
   Ni280      1.0     0.071429      0.101149      0.625000     Biso  1.000000 Ni
   Ni281      1.0     0.214286      0.101149      0.625000     Biso  1.000000 Ni
   Ni282      1.0     0.142857      0.123094      0.625000     Biso  1.000000 Ni
   Ni283      1.0     0.071429      0.079574      0.750000     Biso  1.000000 Ni
   Ni284      1.0     0.214286      0.079574      0.750000     Biso  1.000000 Ni
   Ni285      1.0     0.142857      0.079574      0.875000     Biso  1.000000 Ni
   Ni286      1.0     0.071429      0.123094      0.750000     Biso  1.000000 Ni
   Ni287      1.0     0.071429      0.101149      0.875000     Biso  1.000000 Ni
   Ni288      1.0     0.142857      0.101149      0.750000     Biso  1.000000 Ni
   Ni289      1.0     0.214286      0.123094      0.750000     Biso  1.000000 Ni
   Ni290      1.0     0.214286      0.101149      0.875000     Biso  1.000000 Ni
   Ni291      1.0     0.142857      0.123094      0.875000     Biso  1.000000 Ni
   Ni292      1.0     0.285714      0.101149      1.000000     Biso  1.000000 Ni
   Ni293      1.0     0.428571      0.101149      1.000000     Biso  1.000000 Ni
   Ni294      1.0     0.357143      0.123094      1.000000     Biso  1.000000 Ni
   Ni295      1.0     0.357143      0.123094      0.500000     Biso  1.000000 Ni
   Ni296      1.0     0.285714      0.079574      0.625000     Biso  1.000000 Ni
   Ni297      1.0     0.428571      0.079574      0.625000     Biso  1.000000 Ni
   Ni298      1.0     0.357143      0.101149      0.625000     Biso  1.000000 Ni
   Ni299      1.0     0.285714      0.123094      0.625000     Biso  1.000000 Ni
   Ni300      1.0     0.428571      0.123094      0.625000     Biso  1.000000 Ni
   Ni301      1.0     0.357143      0.079574      0.750000     Biso  1.000000 Ni
   Ni302      1.0     0.285714      0.079574      0.875000     Biso  1.000000 Ni
   Ni303      1.0     0.428571      0.079574      0.875000     Biso  1.000000 Ni
   Ni304      1.0     0.285714      0.101149      0.750000     Biso  1.000000 Ni
   Ni305      1.0     0.357143      0.123094      0.750000     Biso  1.000000 Ni
   Ni306      1.0     0.357143      0.101149      0.875000     Biso  1.000000 Ni
   Ni307      1.0     0.285714      0.123094      0.875000     Biso  1.000000 Ni
   Ni308      1.0     0.428571      0.101149      0.750000     Biso  1.000000 Ni
   Ni309      1.0     0.428571      0.123094      0.875000     Biso  1.000000 Ni
   Ni310      1.0     0.500000      0.101149      0.625000     Biso  1.000000 Ni
   Ni311      1.0     0.500000      0.123094      0.750000     Biso  1.000000 Ni
   Ni312      1.0     0.500000      0.101149      0.875000     Biso  1.000000 Ni
   Ni313      1.0     0.500000      0.123094      1.000000     Biso  1.000000 Ni
   Ni314      1.0     0.642857      0.079574      0.500000     Biso  1.000000 Ni
   Ni315      1.0     0.500000      0.123094      0.500000     Biso  1.000000 Ni
   Ni316      1.0     0.500000      0.079574      0.750000     Biso  1.000000 Ni
   Ni317      1.0     0.571429      0.079574      0.625000     Biso  1.000000 Ni
   Ni318      1.0     0.714286      0.079574      0.625000     Biso  1.000000 Ni
   Ni319      1.0     0.642857      0.101149      0.625000     Biso  1.000000 Ni
   Ni320      1.0     0.571429      0.123094      0.625000     Biso  1.000000 Ni
   Ni321      1.0     0.714286      0.123094      0.625000     Biso  1.000000 Ni
   Ni322      1.0     0.642857      0.079574      0.750000     Biso  1.000000 Ni
   Ni323      1.0     0.571429      0.079574      0.875000     Biso  1.000000 Ni
   Ni324      1.0     0.714286      0.079574      0.875000     Biso  1.000000 Ni
   Ni325      1.0     0.571429      0.101149      0.750000     Biso  1.000000 Ni
   Ni326      1.0     0.642857      0.123094      0.750000     Biso  1.000000 Ni
   Ni327      1.0     0.642857      0.101149      0.875000     Biso  1.000000 Ni
   Ni328      1.0     0.571429      0.123094      0.875000     Biso  1.000000 Ni
   Ni329      1.0     0.714286      0.101149      0.750000     Biso  1.000000 Ni
   Ni330      1.0     0.714286      0.123094      0.875000     Biso  1.000000 Ni
   Ni331      1.0     0.785714      0.123094      1.000000     Biso  1.000000 Ni
   Ni332      1.0     0.928571      0.123094      1.000000     Biso  1.000000 Ni
   Ni333      1.0     1.000000      0.079574      0.625000     Biso  1.000000 Ni
   Ni334      1.0     1.000000      0.123094      0.625000     Biso  1.000000 Ni
   Ni335      1.0     1.000000      0.079574      0.875000     Biso  1.000000 Ni
   Ni336      1.0     1.000000      0.101149      0.750000     Biso  1.000000 Ni
   Ni337      1.0     1.000000      0.123094      0.875000     Biso  1.000000 Ni
   Ni338      1.0     0.928571      0.123094      0.500000     Biso  1.000000 Ni
   Ni339      1.0     0.857143      0.079574      0.625000     Biso  1.000000 Ni
   Ni340      1.0     0.785714      0.101149      0.625000     Biso  1.000000 Ni
   Ni341      1.0     0.928571      0.101149      0.625000     Biso  1.000000 Ni
   Ni342      1.0     0.857143      0.123094      0.625000     Biso  1.000000 Ni
   Ni343      1.0     0.785714      0.079574      0.750000     Biso  1.000000 Ni
   Ni344      1.0     0.928571      0.079574      0.750000     Biso  1.000000 Ni
   Ni345      1.0     0.857143      0.079574      0.875000     Biso  1.000000 Ni
   Ni346      1.0     0.785714      0.123094      0.750000     Biso  1.000000 Ni
   Ni347      1.0     0.785714      0.101149      0.875000     Biso  1.000000 Ni
   Ni348      1.0     0.857143      0.101149      0.750000     Biso  1.000000 Ni
   Ni349      1.0     0.928571      0.123094      0.750000     Biso  1.000000 Ni
   Ni350      1.0     0.928571      0.101149      0.875000     Biso  1.000000 Ni
   Ni351      1.0     0.857143      0.123094      0.875000     Biso  1.000000 Ni
   Ni352      1.0     0.142857      0.145204      1.000000     Biso  1.000000 Ni
   Ni353      1.0     0.071428      0.167322      0.999993     Biso  1.000000 Ni
   Ni354      1.0     0.142855      0.189303      0.999993     Biso  1.000000 Ni
   Ni355      1.0     0.071429      0.210958      0.999999     Biso  1.000000 Ni
   Ni356      1.0     0.071429      0.167321      0.500000     Biso  1.000000 Ni
   Ni357      1.0     0.071429      0.145204      0.625000     Biso  1.000000 Ni
   Ni358      1.0     0.142857      0.145204      0.500000     Biso  1.000000 Ni
   Ni359      1.0     0.214284      0.167321      0.500001     Biso  1.000000 Ni
   Ni360      1.0     0.214286      0.145204      0.625000     Biso  1.000000 Ni
   Ni361      1.0     0.142857      0.167321      0.624998     Biso  1.000000 Ni
   Ni362      1.0     0.071431      0.189302      0.624997     Biso  1.000000 Ni
   Ni363      1.0     0.142858      0.189306      0.500010     Biso  1.000000 Ni
   Ni364      1.0     0.214276      0.189302      0.624995     Biso  1.000000 Ni
   Ni365      1.0     0.071428      0.167321      0.750000     Biso  1.000000 Ni
   Ni366      1.0     0.071429      0.145204      0.875000     Biso  1.000000 Ni
   Ni367      1.0     0.142857      0.145204      0.750000     Biso  1.000000 Ni
   Ni368      1.0     0.214284      0.167321      0.749998     Biso  1.000000 Ni
   Ni369      1.0     0.214286      0.145204      0.875000     Biso  1.000000 Ni
   Ni370      1.0     0.142855      0.167321      0.874997     Biso  1.000000 Ni
   Ni371      1.0     0.071428      0.189309      0.874959     Biso  1.000000 Ni
   Ni372      1.0     0.142845      0.189304      0.749982     Biso  1.000000 Ni
   Ni373      1.0     0.214278      0.189299      0.875004     Biso  1.000000 Ni
   Ni374      1.0     0.000004      0.189304      0.500011     Biso  1.000000 Ni
   Ni375      1.0     0.000009      0.189306      0.749981     Biso  1.000000 Ni
   Ni376      1.0     0.071433      0.210969      0.500045     Biso  1.000000 Ni
   Ni377      1.0     0.000051      0.210976      0.624971     Biso  1.000000 Ni
   Ni378      1.0     0.142832      0.210975      0.624986     Biso  1.000000 Ni
   Ni379      1.0     0.071437      0.210991      0.749814     Biso  1.000000 Ni
   Ni380      1.0     0.000013      0.210962      0.874958     Biso  1.000000 Ni
   Ni381      1.0     0.214308      0.210971      0.750007     Biso  1.000000 Ni
   Ni382      1.0     0.142842      0.210961      0.874964     Biso  1.000000 Ni
   Ni383      1.0     0.000001      0.189303      0.999990     Biso  1.000000 Ni
   Ni384      1.0     0.000000      0.167321      0.625000     Biso  1.000000 Ni
   Ni385      1.0     0.000001      0.167322      0.874996     Biso  1.000000 Ni
   Ni386      1.0     0.285714      0.145204      1.000000     Biso  1.000000 Ni
   Ni387      1.0     0.428571      0.145204      1.000000     Biso  1.000000 Ni
   Ni388      1.0     0.357147      0.210959      0.999992     Biso  1.000000 Ni
   Ni389      1.0     0.285714      0.145205      0.500000     Biso  1.000000 Ni
   Ni390      1.0     0.357143      0.167321      0.500003     Biso  1.000000 Ni
   Ni391      1.0     0.357143      0.145204      0.625000     Biso  1.000000 Ni
   Ni392      1.0     0.285714      0.167321      0.625003     Biso  1.000000 Ni
   Ni393      1.0     0.428571      0.145204      0.500000     Biso  1.000000 Ni
   Ni394      1.0     0.428572      0.167321      0.625000     Biso  1.000000 Ni
   Ni395      1.0     0.357145      0.189307      0.624996     Biso  1.000000 Ni
   Ni396      1.0     0.285714      0.145204      0.750000     Biso  1.000000 Ni
   Ni397      1.0     0.357143      0.167321      0.749996     Biso  1.000000 Ni
   Ni398      1.0     0.357143      0.145205      0.875000     Biso  1.000000 Ni
   Ni399      1.0     0.285714      0.167321      0.874997     Biso  1.000000 Ni
   Ni400      1.0     0.428571      0.145205      0.750000     Biso  1.000000 Ni
   Ni401      1.0     0.428573      0.167321      0.874999     Biso  1.000000 Ni
   Ni402      1.0     0.285708      0.189300      0.749998     Biso  1.000000 Ni
   Ni403      1.0     0.357146      0.189296      0.875022     Biso  1.000000 Ni
   Ni404      1.0     0.428580      0.189301      0.749999     Biso  1.000000 Ni
   Ni405      1.0     0.285685      0.210976      0.625046     Biso  1.000000 Ni
   Ni406      1.0     0.428642      0.210947      0.624961     Biso  1.000000 Ni
   Ni407      1.0     0.357100      0.210954      0.750101     Biso  1.000000 Ni
   Ni408      1.0     0.285703      0.210967      0.874951     Biso  1.000000 Ni
   Ni409      1.0     0.428580      0.210957      0.875003     Biso  1.000000 Ni
   Ni410      1.0     0.571429      0.145205      1.000000     Biso  1.000000 Ni
   Ni411      1.0     0.500000      0.145204      0.625000     Biso  1.000000 Ni
   Ni412      1.0     0.571429      0.145204      0.500000     Biso  1.000000 Ni
   Ni413      1.0     0.500003      0.167321      0.749999     Biso  1.000000 Ni
   Ni414      1.0     0.500000      0.145204      0.875000     Biso  1.000000 Ni
   Ni415      1.0     0.500001      0.167321      0.999997     Biso  1.000000 Ni
   Ni416      1.0     0.500004      0.210958      0.999992     Biso  1.000000 Ni
   Ni417      1.0     0.642860      0.167323      0.999989     Biso  1.000000 Ni
   Ni418      1.0     0.571435      0.189303      0.999985     Biso  1.000000 Ni
   Ni419      1.0     0.714285      0.189319      0.999901     Biso  1.000000 Ni
   Ni420      1.0     0.642878      0.210963      0.999942     Biso  1.000000 Ni
   Ni421      1.0     0.500003      0.167321      0.500001     Biso  1.000000 Ni
   Ni422      1.0     0.500006      0.189304      0.874985     Biso  1.000000 Ni
   Ni423      1.0     0.500023      0.189303      0.624997     Biso  1.000000 Ni
   Ni424      1.0     0.500025      0.210966      0.749948     Biso  1.000000 Ni
   Ni425      1.0     0.642858      0.167321      0.500006     Biso  1.000000 Ni
   Ni426      1.0     0.642857      0.145204      0.625000     Biso  1.000000 Ni
   Ni427      1.0     0.571431      0.167321      0.625002     Biso  1.000000 Ni
   Ni428      1.0     0.714286      0.167320      0.624998     Biso  1.000000 Ni
   Ni429      1.0     0.571442      0.189306      0.500021     Biso  1.000000 Ni
   Ni430      1.0     0.642867      0.189307      0.625027     Biso  1.000000 Ni
   Ni431      1.0     0.714277      0.189314      0.500066     Biso  1.000000 Ni
   Ni432      1.0     0.571429      0.145204      0.750000     Biso  1.000000 Ni
   Ni433      1.0     0.642857      0.167320      0.750000     Biso  1.000000 Ni
   Ni434      1.0     0.642857      0.145204      0.875000     Biso  1.000000 Ni
   Ni435      1.0     0.571432      0.167322      0.874994     Biso  1.000000 Ni
   Ni436      1.0     0.714286      0.145204      0.750000     Biso  1.000000 Ni
   Ni437      1.0     0.714285      0.167320      0.875000     Biso  1.000000 Ni
   Ni438      1.0     0.571450      0.189310      0.749983     Biso  1.000000 Ni
   Ni439      1.0     0.642873      0.189315      0.874939     Biso  1.000000 Ni
   Ni440      1.0     0.714276      0.189298      0.749989     Biso  1.000000 Ni
   Ni441      1.0     0.642875      0.210991      0.500178     Biso  1.000000 Ni
   Ni442      1.0     0.571497      0.210980      0.625014     Biso  1.000000 Ni
   Ni443      1.0     0.714232      0.211020      0.625284     Biso  1.000000 Ni
   Ni444      1.0     0.642951      0.211024      0.749873     Biso  1.000000 Ni
   Ni445      1.0     0.571448      0.210964      0.874948     Biso  1.000000 Ni
   Ni446      1.0     0.714262      0.211049      0.874480     Biso  1.000000 Ni
   Ni447      1.0     1.000000      0.145205      1.000000     Biso  1.000000 Ni
   Ni448      1.0     0.857143      0.145205      1.000000     Biso  1.000000 Ni
   Ni449      1.0     1.000000      0.145204      0.500000     Biso  1.000000 Ni
   Ni450      1.0     1.000000      0.145204      0.750000     Biso  1.000000 Ni
   Ni451      1.0     0.928568      0.210958      0.999984     Biso  1.000000 Ni
   Ni452      1.0     0.785711      0.167323      0.999990     Biso  1.000000 Ni
   Ni453      1.0     0.928571      0.167321      0.999997     Biso  1.000000 Ni
   Ni454      1.0     0.857136      0.189303      0.999986     Biso  1.000000 Ni
   Ni455      1.0     0.785685      0.210964      0.999920     Biso  1.000000 Ni
   Ni456      1.0     0.857143      0.145205      0.500000     Biso  1.000000 Ni
   Ni457      1.0     0.785712      0.167323      0.500007     Biso  1.000000 Ni
   Ni458      1.0     0.785714      0.145204      0.625000     Biso  1.000000 Ni
   Ni459      1.0     0.928572      0.167321      0.500003     Biso  1.000000 Ni
   Ni460      1.0     0.928571      0.145204      0.625000     Biso  1.000000 Ni
   Ni461      1.0     0.857141      0.167322      0.625003     Biso  1.000000 Ni
   Ni462      1.0     0.785695      0.189312      0.625034     Biso  1.000000 Ni
   Ni463      1.0     0.857142      0.189302      0.500006     Biso  1.000000 Ni
   Ni464      1.0     0.928579      0.189304      0.625003     Biso  1.000000 Ni
   Ni465      1.0     0.785714      0.167321      0.750000     Biso  1.000000 Ni
   Ni466      1.0     0.785714      0.145204      0.875000     Biso  1.000000 Ni
   Ni467      1.0     0.857143      0.145204      0.750000     Biso  1.000000 Ni
   Ni468      1.0     0.928571      0.167322      0.749999     Biso  1.000000 Ni
   Ni469      1.0     0.928571      0.145205      0.875000     Biso  1.000000 Ni
   Ni470      1.0     0.857140      0.167322      0.874996     Biso  1.000000 Ni
   Ni471      1.0     0.785692      0.189313      0.874952     Biso  1.000000 Ni
   Ni472      1.0     0.857121      0.189308      0.750000     Biso  1.000000 Ni
   Ni473      1.0     0.928570      0.189303      0.874989     Biso  1.000000 Ni
   Ni474      1.0     0.928579      0.210959      0.500011     Biso  1.000000 Ni
   Ni475      1.0     0.857144      0.210954      0.625018     Biso  1.000000 Ni
   Ni476      1.0     0.785550      0.211014      0.749960     Biso  1.000000 Ni
   Ni477      1.0     0.928587      0.210961      0.749983     Biso  1.000000 Ni
   Ni478      1.0     0.857115      0.210963      0.874955     Biso  1.000000 Ni
   Ni479      1.0     0.071523      0.232479      0.624403     Biso  1.000000 Ni
   Ni480      1.0     0.214338      0.232359      0.625022     Biso  1.000000 Ni
   Ni481      1.0     0.000065      0.232369      0.749872     Biso  1.000000 Ni
   Ni482      1.0     0.071433      0.232358      0.874998     Biso  1.000000 Ni
   Ni483      1.0     0.142831      0.232375      0.749904     Biso  1.000000 Ni
   Ni484      1.0     0.214275      0.232356      0.874969     Biso  1.000000 Ni
   Ni485      1.0     0.428567      0.232355      0.999987     Biso  1.000000 Ni
   Ni486      1.0     0.285715      0.232355      0.999963     Biso  1.000000 Ni
   Ni487      1.0     0.357206      0.232274      0.625049     Biso  1.000000 Ni
   Ni488      1.0     0.286103      0.233094      0.748941     Biso  1.000000 Ni
   Ni489      1.0     0.357140      0.232360      0.874927     Biso  1.000000 Ni
   Ni490      1.0     0.428637      0.232333      0.749945     Biso  1.000000 Ni
   Ni491      1.0     0.571435      0.232353      0.999986     Biso  1.000000 Ni
   Ni492      1.0     0.500111      0.232361      0.624784     Biso  1.000000 Ni
   Ni493      1.0     0.500002      0.232357      0.874990     Biso  1.000000 Ni
   Ni494      1.0     0.642750      0.232469      0.624995     Biso  1.000000 Ni
   Ni495      1.0     0.714319      0.232351      0.500163     Biso  1.000000 Ni
   Ni496      1.0     0.571420      0.232378      0.749990     Biso  1.000000 Ni
   Ni497      1.0     0.642872      0.232379      0.874913     Biso  1.000000 Ni
   Ni498      1.0     0.714060      0.232915      0.748895     Biso  1.000000 Ni
   Ni499      1.0     0.857119      0.232353      0.999947     Biso  1.000000 Ni
   Ni500      1.0     0.785772      0.232333      0.624855     Biso  1.000000 Ni
   Ni501      1.0     0.928574      0.232357      0.624996     Biso  1.000000 Ni
   Ni502      1.0     0.785599      0.232379      0.874781     Biso  1.000000 Ni
   Ni503      1.0     0.857135      0.232359      0.749977     Biso  1.000000 Ni
   Ni504      1.0     0.928585      0.232354      0.874965     Biso  1.000000 Ni
