#======================================================================

# CRYSTAL DATA

#----------------------------------------------------------------------

data_VESTA_phase_1


_chemical_name_common                  'POSCAR file written by Ovito Basic 3.0'
_cell_length_a                         25.66790
_cell_length_b                         81.04630
_cell_length_c                         11.08900
_cell_angle_alpha                      90
_cell_angle_beta                       90
_cell_angle_gamma                      90
_space_group_name_H-M_alt              'P 1'
_space_group_IT_number                 1

loop_
_space_group_symop_operation_xyz
   'x, y, z'

loop_
   _atom_site_label
   _atom_site_occupancy
   _atom_site_fract_x
   _atom_site_fract_y
   _atom_site_fract_z
   _atom_site_adp_type
   _atom_site_B_iso_or_equiv
   _atom_site_type_symbol
   C1         1.0     0.064562      0.278235      0.245308     Biso  1.000000 C
   C2         1.0     0.114868      0.287857      0.208070     Biso  1.000000 C
   C3         1.0     0.113473      0.304521      0.250348     Biso  1.000000 C
   C4         1.0     0.013965      0.287326      0.203426     Biso  1.000000 C
   C5         1.0     0.012372      0.303982      0.246011     Biso  1.000000 C
   C6         1.0     0.248051      0.299780      0.205104     Biso  1.000000 C
   C7         1.0     0.068887      0.299449      0.773453     Biso  1.000000 C
   C8         1.0     0.476719      0.279779      0.160139     Biso  1.000000 C
   C9         1.0     0.475206      0.296421      0.202737     Biso  1.000000 C
   C10        1.0     0.348962      0.300856      0.210282     Biso  1.000000 C
   C11        1.0     0.299121      0.291079      0.248514     Biso  1.000000 C
   C12        1.0     0.480327      0.300846      0.691880     Biso  1.000000 C
   C13        1.0     0.577735      0.280286      0.164752     Biso  1.000000 C
   C14        1.0     0.527327      0.270704      0.202052     Biso  1.000000 C
   C15        1.0     0.525586      0.306081      0.166611     Biso  1.000000 C
   C16        1.0     0.710887      0.292203      0.161816     Biso  1.000000 C
   C17        1.0     0.576315      0.296950      0.207047     Biso  1.000000 C
   C18        1.0     0.581503      0.301603      0.691439     Biso  1.000000 C
   C19        1.0     0.531709      0.291873      0.730130     Biso  1.000000 C
   C20        1.0     0.761947      0.283502      0.205204     Biso  1.000000 C
   C21        1.0     0.811801      0.293278      0.166957     Biso  1.000000 C
   C22        1.0     0.766236      0.304769      0.733117     Biso  1.000000 C
   C23        1.0     0.110088      0.327126      0.449238     Biso  1.000000 C
   C24        1.0     0.062730      0.313650      0.209903     Biso  1.000000 C
   C25        1.0     0.059800      0.317232      0.482813     Biso  1.000000 C
   C26        1.0     0.008848      0.326507      0.444770     Biso  1.000000 C
   C27        1.0     0.245431      0.316558      0.244999     Biso  1.000000 C
   C28        1.0     0.240738      0.339448      0.442111     Biso  1.000000 C
   C29        1.0     0.238081      0.355897      0.487211     Biso  1.000000 C
   C30        1.0     0.186031      0.355144      0.189191     Biso  1.000000 C
   C31        1.0     0.135682      0.345206      0.222002     Biso  1.000000 C
   C32        1.0     0.108697      0.343610      0.492834     Biso  1.000000 C
   C33        1.0     0.084744      0.354214      0.179792     Biso  1.000000 C
   C34        1.0     0.057350      0.352776      0.456613     Biso  1.000000 C
   C35        1.0     0.007153      0.342891      0.491603     Biso  1.000000 C
   C36        1.0     0.118692      0.309178      0.734732     Biso  1.000000 C
   C37        1.0     0.117522      0.325826      0.777703     Biso  1.000000 C
   C38        1.0     0.065978      0.334902      0.740435     Biso  1.000000 C
   C39        1.0     0.017512      0.308419      0.735180     Biso  1.000000 C
   C40        1.0     0.016014      0.325080      0.777218     Biso  1.000000 C
   C41        1.0     0.183028      0.371648      0.233357     Biso  1.000000 C
   C42        1.0     0.132413      0.380662      0.190385     Biso  1.000000 C
   C43        1.0     0.082166      0.370757      0.223452     Biso  1.000000 C
   C44        1.0     0.189001      0.376287      0.712711     Biso  1.000000 C
   C45        1.0     0.139297      0.366185      0.747144     Biso  1.000000 C
   C46        1.0     0.087787      0.375072      0.709140     Biso  1.000000 C
   C47        1.0     0.248945      0.337697      0.775295     Biso  1.000000 C
   C48        1.0     0.129258      0.384567      0.461541     Biso  1.000000 C
   C49        1.0     0.471643      0.318937      0.401453     Biso  1.000000 C
   C50        1.0     0.469987      0.335320      0.448254     Biso  1.000000 C
   C51        1.0     0.346576      0.317614      0.250539     Biso  1.000000 C
   C52        1.0     0.295412      0.326363      0.208260     Biso  1.000000 C
   C53        1.0     0.291918      0.330428      0.481767     Biso  1.000000 C
   C54        1.0     0.341919      0.340473      0.448507     Biso  1.000000 C
   C55        1.0     0.339644      0.357016      0.490940     Biso  1.000000 C
   C56        1.0     0.478875      0.317508      0.733902     Biso  1.000000 C
   C57        1.0     0.352784      0.322226      0.737156     Biso  1.000000 C
   C58        1.0     0.303402      0.312341      0.776418     Biso  1.000000 C
   C59        1.0     0.251632      0.320920      0.735917     Biso  1.000000 C
   C60        1.0     0.350528      0.338965      0.778198     Biso  1.000000 C
   C61        1.0     0.298596      0.347668      0.738545     Biso  1.000000 C
   C62        1.0     0.417020      0.368537      0.184933     Biso  1.000000 C
   C63        1.0     0.366845      0.358613      0.219260     Biso  1.000000 C
   C64        1.0     0.315762      0.367774      0.180257     Biso  1.000000 C
   C65        1.0     0.288036      0.365926      0.452652     Biso  1.000000 C
   C66        1.0     0.370770      0.379587      0.746514     Biso  1.000000 C
   C67        1.0     0.313948      0.384255      0.225153     Biso  1.000000 C
   C68        1.0     0.708244      0.308981      0.201707     Biso  1.000000 C
   C69        1.0     0.572897      0.319552      0.405950     Biso  1.000000 C
   C70        1.0     0.703571      0.331875      0.398819     Biso  1.000000 C
   C71        1.0     0.522612      0.309663      0.439490     Biso  1.000000 C
   C72        1.0     0.571524      0.336038      0.449546     Biso  1.000000 C
   C73        1.0     0.547545      0.346641      0.136509     Biso  1.000000 C
   C74        1.0     0.648848      0.347571      0.145894     Biso  1.000000 C
   C75        1.0     0.598499      0.337635      0.178694     Biso  1.000000 C
   C76        1.0     0.520167      0.345207      0.413307     Biso  1.000000 C
   C77        1.0     0.700892      0.348323      0.443916     Biso  1.000000 C
   C78        1.0     0.528811      0.327335      0.697131     Biso  1.000000 C
   C79        1.0     0.714474      0.313346      0.692635     Biso  1.000000 C
   C80        1.0     0.580354      0.318251      0.734412     Biso  1.000000 C
   C81        1.0     0.711763      0.330121      0.732006     Biso  1.000000 C
   C82        1.0     0.595241      0.373090      0.147095     Biso  1.000000 C
   C83        1.0     0.545004      0.363184      0.180166     Biso  1.000000 C
   C84        1.0     0.645863      0.364074      0.190064     Biso  1.000000 C
   C85        1.0     0.592064      0.376997      0.418221     Biso  1.000000 C
   C86        1.0     0.550583      0.367498      0.665834     Biso  1.000000 C
   C87        1.0     0.651813      0.368712      0.669419     Biso  1.000000 C
   C88        1.0     0.602113      0.358613      0.703830     Biso  1.000000 C
   C89        1.0     0.548031      0.384039      0.709744     Biso  1.000000 C
   C90        1.0     0.758218      0.318791      0.164933     Biso  1.000000 C
   C91        1.0     0.809358      0.310036      0.207220     Biso  1.000000 C
   C92        1.0     0.804754      0.332903      0.405210     Biso  1.000000 C
   C93        1.0     0.754743      0.322857      0.438477     Biso  1.000000 C
   C94        1.0     0.829657      0.351046      0.175943     Biso  1.000000 C
   C95        1.0     0.750850      0.358354      0.409344     Biso  1.000000 C
   C96        1.0     0.802443      0.349444      0.447653     Biso  1.000000 C
   C97        1.0     0.815637      0.314651      0.693869     Biso  1.000000 C
   C98        1.0     0.813324      0.331391      0.734910     Biso  1.000000 C
   C99        1.0     0.761414      0.340097      0.695233     Biso  1.000000 C
   C100       1.0     0.778583      0.360202      0.136960     Biso  1.000000 C
   C101       1.0     0.879850      0.360967      0.141559     Biso  1.000000 C
   C102       1.0     0.776752      0.376681      0.181859     Biso  1.000000 C
   C103       1.0     0.877660      0.377387      0.187809     Biso  1.000000 C
   C104       1.0     0.782089      0.381057      0.667231     Biso  1.000000 C
   C105       1.0     0.883311      0.382068      0.668064     Biso  1.000000 C
   C106       1.0     0.833604      0.372018      0.703223     Biso  1.000000 C
   C107       1.0     0.178884      0.394632      0.425770     Biso  1.000000 C
   C108       1.0     0.077317      0.393317      0.422862     Biso  1.000000 C
   C109       1.0     0.176057      0.411321      0.466100     Biso  1.000000 C
   C110       1.0     0.124268      0.419918      0.426052     Biso  1.000000 C
   C111       1.0     0.074927      0.409967      0.464904     Biso  1.000000 C
   C112       1.0     0.186282      0.392782      0.758263     Biso  1.000000 C
   C113       1.0     0.134942      0.401748      0.719329     Biso  1.000000 C
   C114       1.0     0.085186      0.391612      0.753064     Biso  1.000000 C
   C115       1.0     0.122091      0.454630      0.198688     Biso  1.000000 C
   C116       1.0     0.223031      0.455158      0.203331     Biso  1.000000 C
   C117       1.0     0.172708      0.445547      0.240593     Biso  1.000000 C
   C118       1.0     0.414869      0.384958      0.231142     Biso  1.000000 C
   C119       1.0     0.364099      0.394132      0.190918     Biso  1.000000 C
   C120       1.0     0.361686      0.397706      0.463684     Biso  1.000000 C
   C121       1.0     0.411302      0.407640      0.426296     Biso  1.000000 C
   C122       1.0     0.409401      0.424322      0.467215     Biso  1.000000 C
   C123       1.0     0.309733      0.406600      0.426733     Biso  1.000000 C
   C124       1.0     0.308251      0.423284      0.468337     Biso  1.000000 C
   C125       1.0     0.420454      0.389642      0.711350     Biso  1.000000 C
   C126       1.0     0.319252      0.388630      0.710512     Biso  1.000000 C
   C127       1.0     0.418489      0.406070      0.758363     Biso  1.000000 C
   C128       1.0     0.367196      0.415194      0.721071     Biso  1.000000 C
   C129       1.0     0.317401      0.405131      0.755436     Biso  1.000000 C
   C130       1.0     0.357693      0.433074      0.428206     Biso  1.000000 C
   C131       1.0     0.407259      0.458385      0.243778     Biso  1.000000 C
   C132       1.0     0.540102      0.385742      0.379557     Biso  1.000000 C
   C133       1.0     0.641694      0.387057      0.382482     Biso  1.000000 C
   C134       1.0     0.587097      0.412347      0.382762     Biso  1.000000 C
   C135       1.0     0.537775      0.402389      0.421596     Biso  1.000000 C
   C136       1.0     0.638892      0.403747      0.422814     Biso  1.000000 C
   C137       1.0     0.597769      0.394178      0.676024     Biso  1.000000 C
   C138       1.0     0.649117      0.385208      0.714975     Biso  1.000000 C
   C139       1.0     0.584894      0.447057      0.155405     Biso  1.000000 C
   C140       1.0     0.685844      0.447585      0.160039     Biso  1.000000 C
   C141       1.0     0.635526      0.437975      0.197286     Biso  1.000000 C
   C142       1.0     0.639837      0.459179      0.725387     Biso  1.000000 C
   C143       1.0     0.826907      0.386562      0.147589     Biso  1.000000 C
   C144       1.0     0.772572      0.399027      0.383448     Biso  1.000000 C
   C145       1.0     0.874156      0.400067      0.382997     Biso  1.000000 C
   C146       1.0     0.824518      0.390137      0.420394     Biso  1.000000 C
   C147       1.0     0.820512      0.425502      0.384898     Biso  1.000000 C
   C148       1.0     0.771065      0.415709      0.425047     Biso  1.000000 C
   C149       1.0     0.872205      0.416749      0.423928     Biso  1.000000 C
   C150       1.0     0.780218      0.397557      0.712147     Biso  1.000000 C
   C151       1.0     0.881297      0.398497      0.715076     Biso  1.000000 C
   C152       1.0     0.830017      0.407622      0.677761     Biso  1.000000 C
   C153       1.0     0.818995      0.459505      0.157083     Biso  1.000000 C
   C154       1.0     0.919947      0.460582      0.162203     Biso  1.000000 C
   C155       1.0     0.870079      0.450813      0.200481     Biso  1.000000 C
   C156       1.0     0.116982      0.493806      0.440024     Biso  1.000000 C
   C157       1.0     0.167932      0.484530      0.478058     Biso  1.000000 C
   C158       1.0     0.218220      0.494424      0.444491     Biso  1.000000 C
   C159       1.0     0.120499      0.471286      0.241270     Biso  1.000000 C
   C160       1.0     0.170864      0.480949      0.205167     Biso  1.000000 C
   C161       1.0     0.221618      0.471825      0.245605     Biso  1.000000 C
   C162       1.0     0.124144      0.492381      0.772460     Biso  1.000000 C
   C163       1.0     0.125641      0.475720      0.730422     Biso  1.000000 C
   C164       1.0     0.177021      0.466752      0.768705     Biso  1.000000 C
   C165       1.0     0.225658      0.493127      0.772944     Biso  1.000000 C
   C166       1.0     0.226832      0.476477      0.729977     Biso  1.000000 C
   C167       1.0     0.115287      0.510190      0.486852     Biso  1.000000 C
   C168       1.0     0.165482      0.520077      0.451860     Biso  1.000000 C
   C169       1.0     0.216826      0.510909      0.488083     Biso  1.000000 C
   C170       1.0     0.192876      0.521517      0.175041     Biso  1.000000 C
   C171       1.0     0.243812      0.512509      0.217255     Biso  1.000000 C
   C172       1.0     0.190296      0.538060      0.218699     Biso  1.000000 C
   C173       1.0     0.174111      0.502200      0.735675     Biso  1.000000 C
   C174       1.0     0.247427      0.533489      0.742397     Biso  1.000000 C
   C175       1.0     0.400048      0.497727      0.477015     Biso  1.000000 C
   C176       1.0     0.356167      0.467079      0.200372     Biso  1.000000 C
   C177       1.0     0.403540      0.493661      0.203520     Biso  1.000000 C
   C178       1.0     0.457108      0.468157      0.205533     Biso  1.000000 C
   C179       1.0     0.353556      0.483857      0.240256     Biso  1.000000 C
   C180       1.0     0.454710      0.484916      0.245795     Biso  1.000000 C
   C181       1.0     0.359763      0.488221      0.731164     Biso  1.000000 C
   C182       1.0     0.411532      0.479642      0.771664     Biso  1.000000 C
   C183       1.0     0.460917      0.489525      0.732400     Biso  1.000000 C
   C184       1.0     0.346213      0.523197      0.482459     Biso  1.000000 C
   C185       1.0     0.396166      0.533227      0.447898     Biso  1.000000 C
   C186       1.0     0.348871      0.506749      0.437365     Biso  1.000000 C
   C187       1.0     0.447771      0.524317      0.486186     Biso  1.000000 C
   C188       1.0     0.450046      0.507774      0.443759     Biso  1.000000 C
   C189       1.0     0.474975      0.525917      0.214511     Biso  1.000000 C
   C190       1.0     0.294161      0.522448      0.184442     Biso  1.000000 C
   C191       1.0     0.423892      0.535077      0.175504     Biso  1.000000 C
   C192       1.0     0.357072      0.504997      0.770542     Biso  1.000000 C
   C193       1.0     0.406726      0.514969      0.733788     Biso  1.000000 C
   C194       1.0     0.458656      0.506265      0.773441     Biso  1.000000 C
   C195       1.0     0.583349      0.463713      0.197979     Biso  1.000000 C
   C196       1.0     0.684453      0.464251      0.202317     Biso  1.000000 C
   C197       1.0     0.633694      0.473380      0.161876     Biso  1.000000 C
   C198       1.0     0.579771      0.486235      0.396707     Biso  1.000000 C
   C199       1.0     0.681026      0.486850      0.401203     Biso  1.000000 C
   C200       1.0     0.630740      0.476961      0.434736     Biso  1.000000 C
   C201       1.0     0.588445      0.468148      0.687116     Biso  1.000000 C
   C202       1.0     0.636940      0.494633      0.692372     Biso  1.000000 C
   C203       1.0     0.689641      0.468904      0.686682     Biso  1.000000 C
   C204       1.0     0.586998      0.484808      0.729144     Biso  1.000000 C
   C205       1.0     0.688490      0.485553      0.729656     Biso  1.000000 C
   C206       1.0     0.655676      0.513944      0.131761     Biso  1.000000 C
   C207       1.0     0.653134      0.530488      0.175414     Biso  1.000000 C
   C208       1.0     0.706627      0.504938      0.173946     Biso  1.000000 C
   C209       1.0     0.628297      0.512507      0.408554     Biso  1.000000 C
   C210       1.0     0.578118      0.502619      0.443503     Biso  1.000000 C
   C211       1.0     0.679652      0.503338      0.444794     Biso  1.000000 C
   C212       1.0     0.525152      0.535840      0.180180     Biso  1.000000 C
   C213       1.0     0.710241      0.525918      0.699084     Biso  1.000000 C
   C214       1.0     0.658712      0.534802      0.661085     Biso  1.000000 C
   C215       1.0     0.866344      0.486090      0.160192     Biso  1.000000 C
   C216       1.0     0.816363      0.476282      0.196963     Biso  1.000000 C
   C217       1.0     0.917492      0.477340      0.202475     Biso  1.000000 C
   C218       1.0     0.811703      0.499175      0.394072     Biso  1.000000 C
   C219       1.0     0.862871      0.490156      0.433725     Biso  1.000000 C
   C220       1.0     0.822601      0.480647      0.687883     Biso  1.000000 C
   C221       1.0     0.923772      0.481951      0.689112     Biso  1.000000 C
   C222       1.0     0.819888      0.497423      0.727254     Biso  1.000000 C
   C223       1.0     0.874365      0.472071      0.728367     Biso  1.000000 C
   C224       1.0     0.921452      0.498691      0.730154     Biso  1.000000 C
   C225       1.0     0.753990      0.531378      0.185311     Biso  1.000000 C
   C226       1.0     0.756976      0.514874      0.141144     Biso  1.000000 C
   C227       1.0     0.886711      0.527505      0.132208     Biso  1.000000 C
   C228       1.0     0.987979      0.528270      0.136806     Biso  1.000000 C
   C229       1.0     0.937785      0.518349      0.171193     Biso  1.000000 C
   C230       1.0     0.858978      0.525656      0.404591     Biso  1.000000 C
   C231       1.0     0.912881      0.500203      0.400462     Biso  1.000000 C
   C232       1.0     0.809023      0.515624      0.439165     Biso  1.000000 C
   C233       1.0     0.910568      0.516745      0.442900     Biso  1.000000 C
   C234       1.0     0.869543      0.507397      0.690479     Biso  1.000000 C
   C235       1.0     0.759944      0.536015      0.664670     Biso  1.000000 C
   C236       1.0     0.185433      0.560616      0.418105     Biso  1.000000 C
   C237       1.0     0.237401      0.551871      0.456783     Biso  1.000000 C
   C238       1.0     0.240544      0.547966      0.185638     Biso  1.000000 C
   C239       1.0     0.193314      0.558915      0.748312     Biso  1.000000 C
   C240       1.0     0.195916      0.542375      0.704390     Biso  1.000000 C
   C241       1.0     0.243072      0.569050      0.714574     Biso  1.000000 C
   C242       1.0     0.182980      0.577254      0.460241     Biso  1.000000 C
   C243       1.0     0.232331      0.587213      0.421534     Biso  1.000000 C
   C244       1.0     0.224217      0.614242      0.171712     Biso  1.000000 C
   C245       1.0     0.291158      0.538951      0.228605     Biso  1.000000 C
   C246       1.0     0.287012      0.561933      0.421024     Biso  1.000000 C
   C247       1.0     0.469829      0.565010      0.458926     Biso  1.000000 C
   C248       1.0     0.472231      0.561435      0.186174     Biso  1.000000 C
   C249       1.0     0.422078      0.551558      0.220399     Biso  1.000000 C
   C250       1.0     0.294413      0.560085      0.753509     Biso  1.000000 C
   C251       1.0     0.297133      0.543589      0.707961     Biso  1.000000 C
   C252       1.0     0.427380      0.555933      0.705764     Biso  1.000000 C
   C253       1.0     0.478899      0.546891      0.741770     Biso  1.000000 C
   C254       1.0     0.284251      0.578613      0.461415     Biso  1.000000 C
   C255       1.0     0.416306      0.590573      0.463670     Biso  1.000000 C
   C256       1.0     0.417850      0.573901      0.421975     Biso  1.000000 C
   C257       1.0     0.465758      0.600370      0.423684     Biso  1.000000 C
   C258       1.0     0.325290      0.614774      0.176334     Biso  1.000000 C
   C259       1.0     0.274954      0.605159      0.213453     Biso  1.000000 C
   C260       1.0     0.425530      0.572434      0.750681     Biso  1.000000 C
   C261       1.0     0.475327      0.582497      0.716315     Biso  1.000000 C
   C262       1.0     0.703370      0.540395      0.142349     Biso  1.000000 C
   C263       1.0     0.648216      0.553041      0.374802     Biso  1.000000 C
   C264       1.0     0.749820      0.554358      0.377735     Biso  1.000000 C
   C265       1.0     0.645827      0.569676      0.416932     Biso  1.000000 C
   C266       1.0     0.700206      0.544301      0.413464     Biso  1.000000 C
   C267       1.0     0.747084      0.571040      0.418130     Biso  1.000000 C
   C268       1.0     0.523001      0.552261      0.226390     Biso  1.000000 C
   C269       1.0     0.705898      0.561480      0.671270     Biso  1.000000 C
   C270       1.0     0.656158      0.551342      0.704992     Biso  1.000000 C
   C271       1.0     0.528587      0.556945      0.706600     Biso  1.000000 C
   C272       1.0     0.695158      0.579642      0.378246     Biso  1.000000 C
   C273       1.0     0.517590      0.591615      0.462528     Biso  1.000000 C
   C274       1.0     0.519430      0.574941      0.421550     Biso  1.000000 C
   C275       1.0     0.687020      0.606670      0.128425     Biso  1.000000 C
   C276       1.0     0.737771      0.597588      0.170143     Biso  1.000000 C
   C277       1.0     0.526621      0.573373      0.753607     Biso  1.000000 C
   C278       1.0     0.935036      0.553866      0.142843     Biso  1.000000 C
   C279       1.0     0.884881      0.543985      0.177107     Biso  1.000000 C
   C280       1.0     0.985789      0.544691      0.183057     Biso  1.000000 C
   C281       1.0     0.880686      0.566328      0.378688     Biso  1.000000 C
   C282       1.0     0.982280      0.567369      0.378250     Biso  1.000000 C
   C283       1.0     0.932659      0.557442      0.415636     Biso  1.000000 C
   C284       1.0     0.890215      0.548359      0.662481     Biso  1.000000 C
   C285       1.0     0.991440      0.549371      0.663316     Biso  1.000000 C
   C286       1.0     0.757245      0.552511      0.710222     Biso  1.000000 C
   C287       1.0     0.888344      0.564860      0.707392     Biso  1.000000 C
   C288       1.0     0.941731      0.539321      0.698478     Biso  1.000000 C
   C289       1.0     0.989425      0.565800      0.710323     Biso  1.000000 C
   C290       1.0     0.928573      0.592797      0.380375     Biso  1.000000 C
   C291       1.0     0.879117      0.582999      0.420377     Biso  1.000000 C
   C292       1.0     0.980391      0.584043      0.419240     Biso  1.000000 C
   C293       1.0     0.788103      0.607200      0.133040     Biso  1.000000 C
   C294       1.0     0.972321      0.610424      0.173351     Biso  1.000000 C
   C295       1.0     0.938145      0.574924      0.673006     Biso  1.000000 C
   C296       1.0     0.022198      0.620195      0.135200     Biso  1.000000 C
   C297       1.0     0.019688      0.636946      0.175549     Biso  1.000000 C
   C298       1.0     0.222683      0.630889      0.214350     Biso  1.000000 C
   C299       1.0     0.227830      0.635319      0.703496     Biso  1.000000 C
   C300       1.0     0.025955      0.641549      0.662196     Biso  1.000000 C
   C301       1.0     0.015075      0.659808      0.372918     Biso  1.000000 C
   C302       1.0     0.219178      0.653404      0.413089     Biso  1.000000 C
   C303       1.0     0.012661      0.676397      0.415437     Biso  1.000000 C
   C304       1.0     0.217494      0.669788      0.459904     Biso  1.000000 C
   C305       1.0     0.023634      0.658291      0.703237     Biso  1.000000 C
   C306       1.0     0.226343      0.651980      0.745543     Biso  1.000000 C
   C307       1.0     0.458292      0.626689      0.173394     Biso  1.000000 C
   C308       1.0     0.323818      0.631429      0.218694     Biso  1.000000 C
   C309       1.0     0.273038      0.640548      0.178248     Biso  1.000000 C
   C310       1.0     0.329013      0.636078      0.703051     Biso  1.000000 C
   C311       1.0     0.279203      0.626350      0.741767     Biso  1.000000 C
   C312       1.0     0.455740      0.643460      0.213333     Biso  1.000000 C
   C313       1.0     0.320400      0.654020      0.417547     Biso  1.000000 C
   C314       1.0     0.270117      0.644124      0.451127     Biso  1.000000 C
   C315       1.0     0.451073      0.666341      0.410405     Biso  1.000000 C
   C316       1.0     0.448418      0.682791      0.455509     Biso  1.000000 C
   C317       1.0     0.396322      0.682061      0.157581     Biso  1.000000 C
   C318       1.0     0.345995      0.672109      0.190284     Biso  1.000000 C
   C319       1.0     0.318996      0.670509      0.461189     Biso  1.000000 C
   C320       1.0     0.295073      0.681130      0.148176     Biso  1.000000 C
   C321       1.0     0.267676      0.679685      0.425015     Biso  1.000000 C
   C322       1.0     0.461960      0.647815      0.704247     Biso  1.000000 C
   C323       1.0     0.327836      0.652732      0.746016     Biso  1.000000 C
   C324       1.0     0.276303      0.661808      0.708786     Biso  1.000000 C
   C325       1.0     0.459273      0.664592      0.743645     Biso  1.000000 C
   C326       1.0     0.735864      0.632980      0.134957     Biso  1.000000 C
   C327       1.0     0.685528      0.623318      0.171056     Biso  1.000000 C
   C328       1.0     0.732918      0.636556      0.407795     Biso  1.000000 C
   C329       1.0     0.559364      0.627772      0.178537     Biso  1.000000 C
   C330       1.0     0.509504      0.617997      0.216650     Biso  1.000000 C
   C331       1.0     0.690630      0.627747      0.660193     Biso  1.000000 C
   C332       1.0     0.742017      0.618778      0.698452     Biso  1.000000 C
   C333       1.0     0.513717      0.639235      0.744736     Biso  1.000000 C
   C334       1.0     0.681956      0.645833      0.369765     Biso  1.000000 C
   C335       1.0     0.680312      0.662218      0.416553     Biso  1.000000 C
   C336       1.0     0.556912      0.644521      0.218880     Biso  1.000000 C
   C337       1.0     0.505712      0.653260      0.176598     Biso  1.000000 C
   C338       1.0     0.502230      0.657317      0.450067     Biso  1.000000 C
   C339       1.0     0.730486      0.672114      0.381707     Biso  1.000000 C
   C340       1.0     0.577148      0.685516      0.187531     Biso  1.000000 C
   C341       1.0     0.552226      0.667369      0.416798     Biso  1.000000 C
   C342       1.0     0.549946      0.683914      0.459277     Biso  1.000000 C
   C343       1.0     0.739130      0.654241      0.665482     Biso  1.000000 C
   C344       1.0     0.689193      0.644408      0.702225     Biso  1.000000 C
   C345       1.0     0.563102      0.649124      0.705481     Biso  1.000000 C
   C346       1.0     0.560832      0.665865      0.746532     Biso  1.000000 C
   C347       1.0     0.508924      0.674572      0.706913     Biso  1.000000 C
   C348       1.0     0.921117      0.619113      0.130105     Biso  1.000000 C
   C349       1.0     0.786649      0.623855      0.175404     Biso  1.000000 C
   C350       1.0     0.918553      0.635882      0.170043     Biso  1.000000 C
   C351       1.0     0.791823      0.628504      0.659755     Biso  1.000000 C
   C352       1.0     0.924797      0.640241      0.660958     Biso  1.000000 C
   C353       1.0     0.976549      0.631664      0.701437     Biso  1.000000 C
   C354       1.0     0.968520      0.645692      0.133285     Biso  1.000000 C
   C355       1.0     0.783201      0.646445      0.374256     Biso  1.000000 C
   C356       1.0     0.913941      0.658770      0.367165     Biso  1.000000 C
   C357       1.0     0.781817      0.662937      0.417897     Biso  1.000000 C
   C358       1.0     0.965104      0.649762      0.406635     Biso  1.000000 C
   C359       1.0     0.757864      0.673554      0.104894     Biso  1.000000 C
   C360       1.0     0.859132      0.674486      0.114288     Biso  1.000000 C
   C361       1.0     0.755320      0.690114      0.148862     Biso  1.000000 C
   C362       1.0     0.808806      0.664538      0.146984     Biso  1.000000 C
   C363       1.0     0.856141      0.691011      0.158847     Biso  1.000000 C
   C364       1.0     0.961254      0.685271      0.376707     Biso  1.000000 C
   C365       1.0     0.911449      0.675260      0.412012     Biso  1.000000 C
   C366       1.0     0.790667      0.645159      0.702723     Biso  1.000000 C
   C367       1.0     0.922093      0.657015      0.700352     Biso  1.000000 C
   C368       1.0     0.971744      0.666999      0.663607     Biso  1.000000 C
   C369       1.0     0.498373      0.692828      0.421003     Biso  1.000000 C
   C370       1.0     0.393302      0.698583      0.202154     Biso  1.000000 C
   C371       1.0     0.342721      0.707608      0.159134     Biso  1.000000 C
   C372       1.0     0.292491      0.697689      0.192157     Biso  1.000000 C
   C373       1.0     0.627330      0.695440      0.153302     Biso  1.000000 C
   C374       1.0     0.625283      0.711865      0.199904     Biso  1.000000 C
   C375       1.0     0.526063      0.694678      0.148639     Biso  1.000000 C
   C376       1.0     0.524151      0.711156      0.193860     Biso  1.000000 C
   C377       1.0     0.574436      0.720956      0.158780     Biso  1.000000 C
   C378       1.0     0.805538      0.700031      0.115829     Biso  1.000000 C
   Cr1        1.0     0.000000      0.074221      0.000000     Biso  1.000000 Cr
   Cr2        1.0     0.142857      0.074221      0.000000     Biso  1.000000 Cr
   Cr3        1.0     0.000000      0.074221      0.250000     Biso  1.000000 Cr
   Cr4        1.0     0.142857      0.074221      0.250000     Biso  1.000000 Cr
   Cr5        1.0     0.000000      0.074221      0.500000     Biso  1.000000 Cr
   Cr6        1.0     0.142857      0.074221      0.500000     Biso  1.000000 Cr
   Cr7        1.0     0.000000      0.074221      0.750000     Biso  1.000000 Cr
   Cr8        1.0     0.142857      0.074221      0.750000     Biso  1.000000 Cr
   Cr9        1.0     0.285714      0.074221      0.000000     Biso  1.000000 Cr
   Cr10       1.0     0.428571      0.074221      0.000000     Biso  1.000000 Cr
   Cr11       1.0     0.285714      0.074221      0.250000     Biso  1.000000 Cr
   Cr12       1.0     0.428571      0.074221      0.250000     Biso  1.000000 Cr
   Cr13       1.0     0.285714      0.074221      0.500000     Biso  1.000000 Cr
   Cr14       1.0     0.428571      0.074221      0.500000     Biso  1.000000 Cr
   Cr15       1.0     0.285714      0.074221      0.750000     Biso  1.000000 Cr
   Cr16       1.0     0.428571      0.074221      0.750000     Biso  1.000000 Cr
   Cr17       1.0     0.571429      0.074221      0.000000     Biso  1.000000 Cr
   Cr18       1.0     0.714286      0.074221      0.000000     Biso  1.000000 Cr
   Cr19       1.0     0.571429      0.074221      0.250000     Biso  1.000000 Cr
   Cr20       1.0     0.714286      0.074221      0.250000     Biso  1.000000 Cr
   Cr21       1.0     0.571429      0.074221      0.500000     Biso  1.000000 Cr
   Cr22       1.0     0.714286      0.074221      0.500000     Biso  1.000000 Cr
   Cr23       1.0     0.571429      0.074221      0.750000     Biso  1.000000 Cr
   Cr24       1.0     0.714286      0.074221      0.750000     Biso  1.000000 Cr
   Cr25       1.0     0.857143      0.074221      0.000000     Biso  1.000000 Cr
   Cr26       1.0     0.857143      0.074221      0.250000     Biso  1.000000 Cr
   Cr27       1.0     0.857143      0.074221      0.500000     Biso  1.000000 Cr
   Cr28       1.0     0.857143      0.074221      0.750000     Biso  1.000000 Cr
   Cr29       1.0     0.071429      0.095415      0.125000     Biso  1.000000 Cr
   Cr30       1.0     0.214286      0.095415      0.125000     Biso  1.000000 Cr
   Cr31       1.0     0.071429      0.137924      0.125000     Biso  1.000000 Cr
   Cr32       1.0     0.214286      0.137924      0.125000     Biso  1.000000 Cr
   Cr33       1.0     0.071429      0.095415      0.375000     Biso  1.000000 Cr
   Cr34       1.0     0.214286      0.095415      0.375000     Biso  1.000000 Cr
   Cr35       1.0     0.071429      0.137924      0.375000     Biso  1.000000 Cr
   Cr36       1.0     0.142857      0.116629      0.250000     Biso  1.000000 Cr
   Cr37       1.0     0.214286      0.137924      0.375000     Biso  1.000000 Cr
   Cr38       1.0     0.142857      0.116629      0.000000     Biso  1.000000 Cr
   Cr39       1.0     0.071429      0.095415      0.625000     Biso  1.000000 Cr
   Cr40       1.0     0.214286      0.095415      0.625000     Biso  1.000000 Cr
   Cr41       1.0     0.071429      0.137924      0.625000     Biso  1.000000 Cr
   Cr42       1.0     0.142857      0.116629      0.500000     Biso  1.000000 Cr
   Cr43       1.0     0.214286      0.137924      0.625000     Biso  1.000000 Cr
   Cr44       1.0     0.071429      0.095415      0.875000     Biso  1.000000 Cr
   Cr45       1.0     0.214286      0.095415      0.875000     Biso  1.000000 Cr
   Cr46       1.0     0.071429      0.137924      0.875000     Biso  1.000000 Cr
   Cr47       1.0     0.142857      0.116629      0.750000     Biso  1.000000 Cr
   Cr48       1.0     0.214286      0.137924      0.875000     Biso  1.000000 Cr
   Cr49       1.0     0.000000      0.116629      0.250000     Biso  1.000000 Cr
   Cr50       1.0     0.000000      0.116629      0.000000     Biso  1.000000 Cr
   Cr51       1.0     0.000000      0.116629      0.500000     Biso  1.000000 Cr
   Cr52       1.0     0.000000      0.116629      0.750000     Biso  1.000000 Cr
   Cr53       1.0     0.357143      0.095415      0.125000     Biso  1.000000 Cr
   Cr54       1.0     0.357143      0.137924      0.125000     Biso  1.000000 Cr
   Cr55       1.0     0.357143      0.095415      0.375000     Biso  1.000000 Cr
   Cr56       1.0     0.285714      0.116629      0.250000     Biso  1.000000 Cr
   Cr57       1.0     0.357143      0.137924      0.375000     Biso  1.000000 Cr
   Cr58       1.0     0.428571      0.116629      0.250000     Biso  1.000000 Cr
   Cr59       1.0     0.285714      0.116629      0.000000     Biso  1.000000 Cr
   Cr60       1.0     0.428571      0.116629      0.000000     Biso  1.000000 Cr
   Cr61       1.0     0.357143      0.095415      0.625000     Biso  1.000000 Cr
   Cr62       1.0     0.285714      0.116629      0.500000     Biso  1.000000 Cr
   Cr63       1.0     0.357143      0.137924      0.625000     Biso  1.000000 Cr
   Cr64       1.0     0.428571      0.116629      0.500000     Biso  1.000000 Cr
   Cr65       1.0     0.357143      0.095415      0.875000     Biso  1.000000 Cr
   Cr66       1.0     0.285714      0.116629      0.750000     Biso  1.000000 Cr
   Cr67       1.0     0.357143      0.137924      0.875000     Biso  1.000000 Cr
   Cr68       1.0     0.428571      0.116629      0.750000     Biso  1.000000 Cr
   Cr69       1.0     0.500000      0.137924      0.125000     Biso  1.000000 Cr
   Cr70       1.0     0.500000      0.137924      0.375000     Biso  1.000000 Cr
   Cr71       1.0     0.500000      0.137924      0.625000     Biso  1.000000 Cr
   Cr72       1.0     0.500000      0.137924      0.875000     Biso  1.000000 Cr
   Cr73       1.0     0.500000      0.095415      0.125000     Biso  1.000000 Cr
   Cr74       1.0     0.500000      0.095415      0.375000     Biso  1.000000 Cr
   Cr75       1.0     0.500000      0.095415      0.625000     Biso  1.000000 Cr
   Cr76       1.0     0.500000      0.095415      0.875000     Biso  1.000000 Cr
   Cr77       1.0     0.642857      0.095415      0.125000     Biso  1.000000 Cr
   Cr78       1.0     0.642857      0.137924      0.125000     Biso  1.000000 Cr
   Cr79       1.0     0.642857      0.095415      0.375000     Biso  1.000000 Cr
   Cr80       1.0     0.571429      0.116629      0.250000     Biso  1.000000 Cr
   Cr81       1.0     0.642857      0.137924      0.375000     Biso  1.000000 Cr
   Cr82       1.0     0.714286      0.116629      0.250000     Biso  1.000000 Cr
   Cr83       1.0     0.571429      0.116629      0.000000     Biso  1.000000 Cr
   Cr84       1.0     0.714286      0.116629      0.000000     Biso  1.000000 Cr
   Cr85       1.0     0.642857      0.095415      0.625000     Biso  1.000000 Cr
   Cr86       1.0     0.571429      0.116629      0.500000     Biso  1.000000 Cr
   Cr87       1.0     0.642857      0.137924      0.625000     Biso  1.000000 Cr
   Cr88       1.0     0.714286      0.116629      0.500000     Biso  1.000000 Cr
   Cr89       1.0     0.642857      0.095415      0.875000     Biso  1.000000 Cr
   Cr90       1.0     0.571429      0.116629      0.750000     Biso  1.000000 Cr
   Cr91       1.0     0.642857      0.137924      0.875000     Biso  1.000000 Cr
   Cr92       1.0     0.714286      0.116629      0.750000     Biso  1.000000 Cr
   Cr93       1.0     0.785714      0.095415      0.125000     Biso  1.000000 Cr
   Cr94       1.0     0.928571      0.095415      0.125000     Biso  1.000000 Cr
   Cr95       1.0     0.785714      0.137924      0.125000     Biso  1.000000 Cr
   Cr96       1.0     0.928571      0.137924      0.125000     Biso  1.000000 Cr
   Cr97       1.0     0.785714      0.095415      0.375000     Biso  1.000000 Cr
   Cr98       1.0     0.928571      0.095415      0.375000     Biso  1.000000 Cr
   Cr99       1.0     0.785714      0.137924      0.375000     Biso  1.000000 Cr
   Cr100      1.0     0.857143      0.116629      0.250000     Biso  1.000000 Cr
   Cr101      1.0     0.928571      0.137924      0.375000     Biso  1.000000 Cr
   Cr102      1.0     0.857143      0.116629      0.000000     Biso  1.000000 Cr
   Cr103      1.0     0.785714      0.095415      0.625000     Biso  1.000000 Cr
   Cr104      1.0     0.928571      0.095415      0.625000     Biso  1.000000 Cr
   Cr105      1.0     0.785714      0.137924      0.625000     Biso  1.000000 Cr
   Cr106      1.0     0.857143      0.116629      0.500000     Biso  1.000000 Cr
   Cr107      1.0     0.928571      0.137924      0.625000     Biso  1.000000 Cr
   Cr108      1.0     0.785714      0.095415      0.875000     Biso  1.000000 Cr
   Cr109      1.0     0.928571      0.095415      0.875000     Biso  1.000000 Cr
   Cr110      1.0     0.785714      0.137924      0.875000     Biso  1.000000 Cr
   Cr111      1.0     0.857143      0.116629      0.750000     Biso  1.000000 Cr
   Cr112      1.0     0.928571      0.137924      0.875000     Biso  1.000000 Cr
   Cr113      1.0     0.000000      0.159223      0.000000     Biso  1.000000 Cr
   Cr114      1.0     0.071429      0.180537      0.125000     Biso  1.000000 Cr
   Cr115      1.0     0.142857      0.159223      0.000000     Biso  1.000000 Cr
   Cr116      1.0     0.214286      0.180537      0.125000     Biso  1.000000 Cr
   Cr117      1.0     0.000000      0.159223      0.250000     Biso  1.000000 Cr
   Cr118      1.0     0.071429      0.180537      0.375000     Biso  1.000000 Cr
   Cr119      1.0     0.142857      0.159223      0.250000     Biso  1.000000 Cr
   Cr120      1.0     0.214286      0.180537      0.375000     Biso  1.000000 Cr
   Cr121      1.0     0.142857      0.201914      0.250000     Biso  1.000000 Cr
   Cr122      1.0     0.000000      0.159223      0.500000     Biso  1.000000 Cr
   Cr123      1.0     0.142857      0.159223      0.500000     Biso  1.000000 Cr
   Cr124      1.0     0.142857      0.201915      0.000000     Biso  1.000000 Cr
   Cr125      1.0     0.071429      0.180537      0.625000     Biso  1.000000 Cr
   Cr126      1.0     0.214286      0.180537      0.625000     Biso  1.000000 Cr
   Cr127      1.0     0.142857      0.201915      0.500000     Biso  1.000000 Cr
   Cr128      1.0     0.000000      0.159223      0.750000     Biso  1.000000 Cr
   Cr129      1.0     0.071429      0.180537      0.875000     Biso  1.000000 Cr
   Cr130      1.0     0.142857      0.159223      0.750000     Biso  1.000000 Cr
   Cr131      1.0     0.214286      0.180537      0.875000     Biso  1.000000 Cr
   Cr132      1.0     0.142857      0.201915      0.750000     Biso  1.000000 Cr
   Cr133      1.0     0.071428      0.222790      0.125007     Biso  1.000000 Cr
   Cr134      1.0     0.214285      0.222788      0.125002     Biso  1.000000 Cr
   Cr135      1.0     0.071428      0.222789      0.374993     Biso  1.000000 Cr
   Cr136      1.0     0.214285      0.222787      0.374997     Biso  1.000000 Cr
   Cr137      1.0     0.071429      0.222786      0.624999     Biso  1.000000 Cr
   Cr138      1.0     0.214286      0.222786      0.625000     Biso  1.000000 Cr
   Cr139      1.0     0.071429      0.222787      0.875002     Biso  1.000000 Cr
   Cr140      1.0     0.214286      0.222786      0.875001     Biso  1.000000 Cr
   Cr141      1.0     0.000000      0.201914      0.250000     Biso  1.000000 Cr
   Cr142      1.0     0.000000      0.201915      0.750000     Biso  1.000000 Cr
   Cr143      1.0     0.000000      0.201915      0.000000     Biso  1.000000 Cr
   Cr144      1.0     0.000000      0.201915      0.500000     Biso  1.000000 Cr
   Cr145      1.0     0.285714      0.159223      0.000000     Biso  1.000000 Cr
   Cr146      1.0     0.357143      0.180537      0.125000     Biso  1.000000 Cr
   Cr147      1.0     0.428571      0.159223      0.000000     Biso  1.000000 Cr
   Cr148      1.0     0.285714      0.159223      0.250000     Biso  1.000000 Cr
   Cr149      1.0     0.357143      0.180537      0.375000     Biso  1.000000 Cr
   Cr150      1.0     0.428571      0.159223      0.250000     Biso  1.000000 Cr
   Cr151      1.0     0.285714      0.201914      0.250000     Biso  1.000000 Cr
   Cr152      1.0     0.428571      0.201914      0.250000     Biso  1.000000 Cr
   Cr153      1.0     0.285714      0.159223      0.500000     Biso  1.000000 Cr
   Cr154      1.0     0.428571      0.159223      0.500000     Biso  1.000000 Cr
   Cr155      1.0     0.285714      0.201916      0.500001     Biso  1.000000 Cr
   Cr156      1.0     0.285714      0.201915      0.999999     Biso  1.000000 Cr
   Cr157      1.0     0.428571      0.201914      0.000000     Biso  1.000000 Cr
   Cr158      1.0     0.357143      0.180537      0.625000     Biso  1.000000 Cr
   Cr159      1.0     0.428571      0.201915      0.500001     Biso  1.000000 Cr
   Cr160      1.0     0.285714      0.159223      0.750000     Biso  1.000000 Cr
   Cr161      1.0     0.357143      0.180537      0.875000     Biso  1.000000 Cr
   Cr162      1.0     0.428571      0.159223      0.750000     Biso  1.000000 Cr
   Cr163      1.0     0.285714      0.201916      0.750000     Biso  1.000000 Cr
   Cr164      1.0     0.428571      0.201915      0.750000     Biso  1.000000 Cr
   Cr165      1.0     0.357145      0.222788      0.125002     Biso  1.000000 Cr
   Cr166      1.0     0.357144      0.222787      0.374997     Biso  1.000000 Cr
   Cr167      1.0     0.357143      0.222786      0.625000     Biso  1.000000 Cr
   Cr168      1.0     0.357144      0.222787      0.875002     Biso  1.000000 Cr
   Cr169      1.0     0.500000      0.180537      0.125000     Biso  1.000000 Cr
   Cr170      1.0     0.500000      0.180537      0.375000     Biso  1.000000 Cr
   Cr171      1.0     0.500000      0.222787      0.625000     Biso  1.000000 Cr
   Cr172      1.0     0.500001      0.222788      0.875007     Biso  1.000000 Cr
   Cr173      1.0     0.571429      0.159223      0.000000     Biso  1.000000 Cr
   Cr174      1.0     0.642857      0.180537      0.125000     Biso  1.000000 Cr
   Cr175      1.0     0.714286      0.159223      0.000000     Biso  1.000000 Cr
   Cr176      1.0     0.571429      0.159223      0.250000     Biso  1.000000 Cr
   Cr177      1.0     0.642857      0.180537      0.375000     Biso  1.000000 Cr
   Cr178      1.0     0.714286      0.159223      0.250000     Biso  1.000000 Cr
   Cr179      1.0     0.571432      0.201924      0.250005     Biso  1.000000 Cr
   Cr180      1.0     0.714287      0.201914      0.250000     Biso  1.000000 Cr
   Cr181      1.0     0.571429      0.159223      0.500000     Biso  1.000000 Cr
   Cr182      1.0     0.714286      0.159223      0.500000     Biso  1.000000 Cr
   Cr183      1.0     0.571429      0.201914      0.000000     Biso  1.000000 Cr
   Cr184      1.0     0.714286      0.201914      0.000000     Biso  1.000000 Cr
   Cr185      1.0     0.500000      0.180537      0.625000     Biso  1.000000 Cr
   Cr186      1.0     0.642857      0.180537      0.625000     Biso  1.000000 Cr
   Cr187      1.0     0.571429      0.201915      0.500002     Biso  1.000000 Cr
   Cr188      1.0     0.714286      0.201915      0.500001     Biso  1.000000 Cr
   Cr189      1.0     0.500000      0.180537      0.875000     Biso  1.000000 Cr
   Cr190      1.0     0.571429      0.159223      0.750000     Biso  1.000000 Cr
   Cr191      1.0     0.642857      0.180537      0.875000     Biso  1.000000 Cr
   Cr192      1.0     0.714286      0.159223      0.750000     Biso  1.000000 Cr
   Cr193      1.0     0.571429      0.201915      0.750000     Biso  1.000000 Cr
   Cr194      1.0     0.714286      0.201915      0.749999     Biso  1.000000 Cr
   Cr195      1.0     0.500013      0.222794      0.125022     Biso  1.000000 Cr
   Cr196      1.0     0.642870      0.222785      0.124994     Biso  1.000000 Cr
   Cr197      1.0     0.500003      0.222788      0.375004     Biso  1.000000 Cr
   Cr198      1.0     0.642880      0.222781      0.375037     Biso  1.000000 Cr
   Cr199      1.0     0.642857      0.222786      0.625001     Biso  1.000000 Cr
   Cr200      1.0     0.642857      0.222787      0.875002     Biso  1.000000 Cr
   Cr201      1.0     0.785714      0.180537      0.125000     Biso  1.000000 Cr
   Cr202      1.0     0.857143      0.159223      0.000000     Biso  1.000000 Cr
   Cr203      1.0     0.928571      0.180537      0.125000     Biso  1.000000 Cr
   Cr204      1.0     0.785714      0.180537      0.375000     Biso  1.000000 Cr
   Cr205      1.0     0.857143      0.159223      0.250000     Biso  1.000000 Cr
   Cr206      1.0     0.928571      0.180537      0.375000     Biso  1.000000 Cr
   Cr207      1.0     0.857143      0.201914      0.250000     Biso  1.000000 Cr
   Cr208      1.0     0.857143      0.159223      0.500000     Biso  1.000000 Cr
   Cr209      1.0     0.857143      0.201915      0.000000     Biso  1.000000 Cr
   Cr210      1.0     0.785714      0.180537      0.625000     Biso  1.000000 Cr
   Cr211      1.0     0.928571      0.180537      0.625000     Biso  1.000000 Cr
   Cr212      1.0     0.857143      0.201916      0.500000     Biso  1.000000 Cr
   Cr213      1.0     0.785714      0.180537      0.875000     Biso  1.000000 Cr
   Cr214      1.0     0.857143      0.159223      0.750000     Biso  1.000000 Cr
   Cr215      1.0     0.928571      0.180537      0.875000     Biso  1.000000 Cr
   Cr216      1.0     0.857143      0.201916      0.750000     Biso  1.000000 Cr
   Cr217      1.0     0.785713      0.222788      0.125002     Biso  1.000000 Cr
   Cr218      1.0     0.928572      0.222788      0.125002     Biso  1.000000 Cr
   Cr219      1.0     0.785713      0.222788      0.374996     Biso  1.000000 Cr
   Cr220      1.0     0.928572      0.222787      0.374998     Biso  1.000000 Cr
   Cr221      1.0     0.785714      0.222786      0.625000     Biso  1.000000 Cr
   Cr222      1.0     0.928571      0.222786      0.625000     Biso  1.000000 Cr
   Cr223      1.0     0.785714      0.222787      0.875002     Biso  1.000000 Cr
   Cr224      1.0     0.928571      0.222787      0.875002     Biso  1.000000 Cr
   Cr225      1.0     0.000013      0.242125      0.000039     Biso  1.000000 Cr
   Cr226      1.0     0.142845      0.242123      0.000033     Biso  1.000000 Cr
   Cr227      1.0     0.000004      0.242135      0.250004     Biso  1.000000 Cr
   Cr228      1.0     0.142835      0.242139      0.249992     Biso  1.000000 Cr
   Cr229      1.0     0.000009      0.242118      0.499975     Biso  1.000000 Cr
   Cr230      1.0     0.142849      0.242116      0.499978     Biso  1.000000 Cr
   Cr231      1.0     0.000005      0.242115      0.750003     Biso  1.000000 Cr
   Cr232      1.0     0.142853      0.242113      0.750003     Biso  1.000000 Cr
   Cr233      1.0     0.285715      0.242116      0.000016     Biso  1.000000 Cr
   Cr234      1.0     0.428601      0.242133      0.000062     Biso  1.000000 Cr
   Cr235      1.0     0.285715      0.242126      0.249993     Biso  1.000000 Cr
   Cr236      1.0     0.428602      0.242132      0.249983     Biso  1.000000 Cr
   Cr237      1.0     0.285714      0.242112      0.499990     Biso  1.000000 Cr
   Cr238      1.0     0.428580      0.242117      0.499980     Biso  1.000000 Cr
   Cr239      1.0     0.285714      0.242110      0.750001     Biso  1.000000 Cr
   Cr240      1.0     0.428579      0.242115      0.750007     Biso  1.000000 Cr
   Cr241      1.0     0.571444      0.242132      0.000028     Biso  1.000000 Cr
   Cr242      1.0     0.714290      0.242126      0.000039     Biso  1.000000 Cr
   Cr243      1.0     0.572030      0.241900      0.251028     Biso  1.000000 Cr
   Cr244      1.0     0.714275      0.242136      0.249978     Biso  1.000000 Cr
   Cr245      1.0     0.571423      0.242121      0.500013     Biso  1.000000 Cr
   Cr246      1.0     0.714289      0.242114      0.499987     Biso  1.000000 Cr
   Cr247      1.0     0.571419      0.242123      0.750005     Biso  1.000000 Cr
   Cr248      1.0     0.714288      0.242113      0.750005     Biso  1.000000 Cr
   Cr249      1.0     0.857134      0.242119      0.000019     Biso  1.000000 Cr
   Cr250      1.0     0.857128      0.242126      0.249984     Biso  1.000000 Cr
   Cr251      1.0     0.857139      0.242112      0.499992     Biso  1.000000 Cr
   Cr252      1.0     0.857140      0.242111      0.750003     Biso  1.000000 Cr
   Fe1        1.0     0.142857      0.758311      0.000000     Biso  1.000000 Fe
   Fe2        1.0     0.142858      0.758311      0.249999     Biso  1.000000 Fe
   Fe3        1.0     0.000000      0.758311      0.499999     Biso  1.000000 Fe
   Fe4        1.0     0.142857      0.758312      0.500000     Biso  1.000000 Fe
   Fe5        1.0     0.000000      0.758312      0.750000     Biso  1.000000 Fe
   Fe6        1.0     0.142857      0.758312      0.750001     Biso  1.000000 Fe
   Fe7        1.0     0.000000      0.758312      0.000000     Biso  1.000000 Fe
   Fe8        1.0     0.000000      0.758311      0.250000     Biso  1.000000 Fe
   Fe9        1.0     0.285717      0.758306      0.000012     Biso  1.000000 Fe
   Fe10       1.0     0.428574      0.758305      0.000018     Biso  1.000000 Fe
   Fe11       1.0     0.285717      0.758305      0.249991     Biso  1.000000 Fe
   Fe12       1.0     0.428574      0.758301      0.249988     Biso  1.000000 Fe
   Fe13       1.0     0.428572      0.758311      0.499991     Biso  1.000000 Fe
   Fe14       1.0     0.285714      0.758311      0.499994     Biso  1.000000 Fe
   Fe15       1.0     0.285714      0.758312      0.750003     Biso  1.000000 Fe
   Fe16       1.0     0.428571      0.758313      0.750003     Biso  1.000000 Fe
   Fe17       1.0     0.571430      0.758306      0.999873     Biso  1.000000 Fe
   Fe18       1.0     0.714280      0.758305      0.000015     Biso  1.000000 Fe
   Fe19       1.0     0.571404      0.758676      0.250797     Biso  1.000000 Fe
   Fe20       1.0     0.714278      0.758304      0.249988     Biso  1.000000 Fe
   Fe21       1.0     0.571428      0.758309      0.500145     Biso  1.000000 Fe
   Fe22       1.0     0.714285      0.758311      0.499994     Biso  1.000000 Fe
   Fe23       1.0     0.571429      0.758311      0.750012     Biso  1.000000 Fe
   Fe24       1.0     0.714286      0.758312      0.750004     Biso  1.000000 Fe
   Fe25       1.0     0.857142      0.758309      0.000005     Biso  1.000000 Fe
   Fe26       1.0     0.857142      0.758309      0.249994     Biso  1.000000 Fe
   Fe27       1.0     0.857143      0.758312      0.499999     Biso  1.000000 Fe
   Fe28       1.0     0.857143      0.758312      0.750003     Biso  1.000000 Fe
   Fe29       1.0     0.071429      0.776938      0.125000     Biso  1.000000 Fe
   Fe30       1.0     0.214287      0.776938      0.125000     Biso  1.000000 Fe
   Fe31       1.0     0.071429      0.776938      0.375000     Biso  1.000000 Fe
   Fe32       1.0     0.214287      0.776938      0.374999     Biso  1.000000 Fe
   Fe33       1.0     0.071429      0.776938      0.625000     Biso  1.000000 Fe
   Fe34       1.0     0.214286      0.776938      0.625000     Biso  1.000000 Fe
   Fe35       1.0     0.071429      0.776938      0.875000     Biso  1.000000 Fe
   Fe36       1.0     0.214286      0.776938      0.875001     Biso  1.000000 Fe
   Fe37       1.0     0.071429      0.819485      0.125000     Biso  1.000000 Fe
   Fe38       1.0     0.142857      0.798030      0.000000     Biso  1.000000 Fe
   Fe39       1.0     0.214286      0.819485      0.125000     Biso  1.000000 Fe
   Fe40       1.0     0.071429      0.819485      0.375000     Biso  1.000000 Fe
   Fe41       1.0     0.142857      0.798030      0.250000     Biso  1.000000 Fe
   Fe42       1.0     0.214286      0.819485      0.375000     Biso  1.000000 Fe
   Fe43       1.0     0.000000      0.840773      0.250000     Biso  1.000000 Fe
   Fe44       1.0     0.142857      0.840773      0.250000     Biso  1.000000 Fe
   Fe45       1.0     0.142857      0.798030      0.500000     Biso  1.000000 Fe
   Fe46       1.0     0.000000      0.840773      0.000000     Biso  1.000000 Fe
   Fe47       1.0     0.142857      0.840773      0.000000     Biso  1.000000 Fe
   Fe48       1.0     0.071429      0.819485      0.625000     Biso  1.000000 Fe
   Fe49       1.0     0.214286      0.819485      0.625000     Biso  1.000000 Fe
   Fe50       1.0     0.000000      0.840773      0.500000     Biso  1.000000 Fe
   Fe51       1.0     0.142857      0.840773      0.500000     Biso  1.000000 Fe
   Fe52       1.0     0.071429      0.819485      0.875000     Biso  1.000000 Fe
   Fe53       1.0     0.142857      0.798030      0.750000     Biso  1.000000 Fe
   Fe54       1.0     0.214286      0.819485      0.875000     Biso  1.000000 Fe
   Fe55       1.0     0.000000      0.840773      0.750000     Biso  1.000000 Fe
   Fe56       1.0     0.142857      0.840773      0.750000     Biso  1.000000 Fe
   Fe57       1.0     0.000000      0.798030      0.500000     Biso  1.000000 Fe
   Fe58       1.0     0.000000      0.798030      0.750000     Biso  1.000000 Fe
   Fe59       1.0     0.000000      0.798030      0.000000     Biso  1.000000 Fe
   Fe60       1.0     0.000000      0.798030      0.250000     Biso  1.000000 Fe
   Fe61       1.0     0.357144      0.776937      0.125002     Biso  1.000000 Fe
   Fe62       1.0     0.357144      0.776938      0.374996     Biso  1.000000 Fe
   Fe63       1.0     0.499945      0.776952      0.375085     Biso  1.000000 Fe
   Fe64       1.0     0.357143      0.776938      0.625000     Biso  1.000000 Fe
   Fe65       1.0     0.357143      0.776938      0.875002     Biso  1.000000 Fe
   Fe66       1.0     0.499999      0.776939      0.625001     Biso  1.000000 Fe
   Fe67       1.0     0.357143      0.819485      0.125000     Biso  1.000000 Fe
   Fe68       1.0     0.428571      0.840773      0.000000     Biso  1.000000 Fe
   Fe69       1.0     0.285714      0.798030      0.250000     Biso  1.000000 Fe
   Fe70       1.0     0.357143      0.819485      0.375000     Biso  1.000000 Fe
   Fe71       1.0     0.428570      0.798030      0.250000     Biso  1.000000 Fe
   Fe72       1.0     0.285714      0.840773      0.250000     Biso  1.000000 Fe
   Fe73       1.0     0.428571      0.840773      0.250000     Biso  1.000000 Fe
   Fe74       1.0     0.285714      0.798030      0.500000     Biso  1.000000 Fe
   Fe75       1.0     0.428570      0.798030      0.500001     Biso  1.000000 Fe
   Fe76       1.0     0.428571      0.840773      0.500000     Biso  1.000000 Fe
   Fe77       1.0     0.285714      0.840773      0.500000     Biso  1.000000 Fe
   Fe78       1.0     0.285714      0.798030      0.000000     Biso  1.000000 Fe
   Fe79       1.0     0.428570      0.798030      0.999999     Biso  1.000000 Fe
   Fe80       1.0     0.285714      0.840773      0.000000     Biso  1.000000 Fe
   Fe81       1.0     0.357143      0.819485      0.625000     Biso  1.000000 Fe
   Fe82       1.0     0.285714      0.798030      0.750000     Biso  1.000000 Fe
   Fe83       1.0     0.357143      0.819485      0.875000     Biso  1.000000 Fe
   Fe84       1.0     0.428571      0.798030      0.750000     Biso  1.000000 Fe
   Fe85       1.0     0.285714      0.840773      0.750000     Biso  1.000000 Fe
   Fe86       1.0     0.428571      0.840773      0.750000     Biso  1.000000 Fe
   Fe87       1.0     0.499954      0.776948      0.124919     Biso  1.000000 Fe
   Fe88       1.0     0.500000      0.776938      0.875004     Biso  1.000000 Fe
   Fe89       1.0     0.642902      0.776948      0.124920     Biso  1.000000 Fe
   Fe90       1.0     0.642911      0.776952      0.375084     Biso  1.000000 Fe
   Fe91       1.0     0.642858      0.776939      0.625001     Biso  1.000000 Fe
   Fe92       1.0     0.642857      0.776938      0.875004     Biso  1.000000 Fe
   Fe93       1.0     0.500000      0.819485      0.125000     Biso  1.000000 Fe
   Fe94       1.0     0.642857      0.819485      0.125000     Biso  1.000000 Fe
   Fe95       1.0     0.571429      0.840773      0.000000     Biso  1.000000 Fe
   Fe96       1.0     0.714286      0.840773      0.000000     Biso  1.000000 Fe
   Fe97       1.0     0.500000      0.819485      0.375000     Biso  1.000000 Fe
   Fe98       1.0     0.571429      0.798045      0.250001     Biso  1.000000 Fe
   Fe99       1.0     0.642857      0.819485      0.375000     Biso  1.000000 Fe
   Fe100      1.0     0.714287      0.798030      0.250000     Biso  1.000000 Fe
   Fe101      1.0     0.571429      0.840772      0.250000     Biso  1.000000 Fe
   Fe102      1.0     0.714286      0.840773      0.250000     Biso  1.000000 Fe
   Fe103      1.0     0.714287      0.798030      0.500001     Biso  1.000000 Fe
   Fe104      1.0     0.571429      0.840773      0.500000     Biso  1.000000 Fe
   Fe105      1.0     0.714286      0.840773      0.500000     Biso  1.000000 Fe
   Fe106      1.0     0.571429      0.798030      0.000001     Biso  1.000000 Fe
   Fe107      1.0     0.714287      0.798030      0.999999     Biso  1.000000 Fe
   Fe108      1.0     0.500000      0.819485      0.625000     Biso  1.000000 Fe
   Fe109      1.0     0.571429      0.798030      0.499998     Biso  1.000000 Fe
   Fe110      1.0     0.642857      0.819485      0.625000     Biso  1.000000 Fe
   Fe111      1.0     0.500000      0.819485      0.875000     Biso  1.000000 Fe
   Fe112      1.0     0.571429      0.798030      0.750000     Biso  1.000000 Fe
   Fe113      1.0     0.642857      0.819485      0.875000     Biso  1.000000 Fe
   Fe114      1.0     0.714286      0.798030      0.750000     Biso  1.000000 Fe
   Fe115      1.0     0.571429      0.840773      0.750000     Biso  1.000000 Fe
   Fe116      1.0     0.714286      0.840773      0.750000     Biso  1.000000 Fe
   Fe117      1.0     0.785713      0.776938      0.125001     Biso  1.000000 Fe
   Fe118      1.0     0.928571      0.776938      0.125000     Biso  1.000000 Fe
   Fe119      1.0     0.785713      0.776938      0.374998     Biso  1.000000 Fe
   Fe120      1.0     0.928571      0.776938      0.375000     Biso  1.000000 Fe
   Fe121      1.0     0.785714      0.776938      0.625001     Biso  1.000000 Fe
   Fe122      1.0     0.928571      0.776938      0.625000     Biso  1.000000 Fe
   Fe123      1.0     0.785714      0.776938      0.875001     Biso  1.000000 Fe
   Fe124      1.0     0.928571      0.776938      0.875001     Biso  1.000000 Fe
   Fe125      1.0     0.785714      0.819485      0.125000     Biso  1.000000 Fe
   Fe126      1.0     0.857143      0.798030      0.000000     Biso  1.000000 Fe
   Fe127      1.0     0.928571      0.819485      0.125000     Biso  1.000000 Fe
   Fe128      1.0     0.785714      0.819485      0.375000     Biso  1.000000 Fe
   Fe129      1.0     0.857143      0.798030      0.250000     Biso  1.000000 Fe
   Fe130      1.0     0.928571      0.819485      0.375000     Biso  1.000000 Fe
   Fe131      1.0     0.857143      0.840773      0.250000     Biso  1.000000 Fe
   Fe132      1.0     0.857143      0.798030      0.500000     Biso  1.000000 Fe
   Fe133      1.0     0.857143      0.840773      0.000000     Biso  1.000000 Fe
   Fe134      1.0     0.785714      0.819485      0.625000     Biso  1.000000 Fe
   Fe135      1.0     0.928571      0.819485      0.625000     Biso  1.000000 Fe
   Fe136      1.0     0.857143      0.840773      0.500000     Biso  1.000000 Fe
   Fe137      1.0     0.785714      0.819485      0.875000     Biso  1.000000 Fe
   Fe138      1.0     0.857143      0.798030      0.750000     Biso  1.000000 Fe
   Fe139      1.0     0.928571      0.819485      0.875000     Biso  1.000000 Fe
   Fe140      1.0     0.857143      0.840773      0.750000     Biso  1.000000 Fe
   Fe141      1.0     0.071429      0.862117      0.125000     Biso  1.000000 Fe
   Fe142      1.0     0.214286      0.862117      0.125000     Biso  1.000000 Fe
   Fe143      1.0     0.071429      0.904114      0.125000     Biso  1.000000 Fe
   Fe144      1.0     0.142857      0.883501      0.000000     Biso  1.000000 Fe
   Fe145      1.0     0.214286      0.904114      0.125000     Biso  1.000000 Fe
   Fe146      1.0     0.071429      0.862117      0.375000     Biso  1.000000 Fe
   Fe147      1.0     0.214286      0.862117      0.375000     Biso  1.000000 Fe
   Fe148      1.0     0.071429      0.904114      0.375000     Biso  1.000000 Fe
   Fe149      1.0     0.142857      0.883501      0.250000     Biso  1.000000 Fe
   Fe150      1.0     0.214286      0.904114      0.375000     Biso  1.000000 Fe
   Fe151      1.0     0.142857      0.883501      0.500000     Biso  1.000000 Fe
   Fe152      1.0     0.071429      0.862117      0.625000     Biso  1.000000 Fe
   Fe153      1.0     0.214286      0.862117      0.625000     Biso  1.000000 Fe
   Fe154      1.0     0.071429      0.904114      0.625000     Biso  1.000000 Fe
   Fe155      1.0     0.214286      0.904114      0.625000     Biso  1.000000 Fe
   Fe156      1.0     0.071429      0.862117      0.875000     Biso  1.000000 Fe
   Fe157      1.0     0.214286      0.862117      0.875000     Biso  1.000000 Fe
   Fe158      1.0     0.071429      0.904114      0.875000     Biso  1.000000 Fe
   Fe159      1.0     0.142857      0.883501      0.750000     Biso  1.000000 Fe
   Fe160      1.0     0.214286      0.904114      0.875000     Biso  1.000000 Fe
   Fe161      1.0     0.000000      0.883501      0.000000     Biso  1.000000 Fe
   Fe162      1.0     0.000000      0.883501      0.250000     Biso  1.000000 Fe
   Fe163      1.0     0.000000      0.883501      0.500000     Biso  1.000000 Fe
   Fe164      1.0     0.000000      0.883501      0.750000     Biso  1.000000 Fe
   Fe165      1.0     0.357143      0.862117      0.125000     Biso  1.000000 Fe
   Fe166      1.0     0.357143      0.904114      0.125000     Biso  1.000000 Fe
   Fe167      1.0     0.357143      0.862117      0.375000     Biso  1.000000 Fe
   Fe168      1.0     0.285714      0.883501      0.250000     Biso  1.000000 Fe
   Fe169      1.0     0.357143      0.904114      0.375000     Biso  1.000000 Fe
   Fe170      1.0     0.428571      0.883501      0.250000     Biso  1.000000 Fe
   Fe171      1.0     0.285714      0.883501      0.000000     Biso  1.000000 Fe
   Fe172      1.0     0.285714      0.883501      0.500000     Biso  1.000000 Fe
   Fe173      1.0     0.428571      0.883501      0.000000     Biso  1.000000 Fe
   Fe174      1.0     0.357143      0.862117      0.625000     Biso  1.000000 Fe
   Fe175      1.0     0.357143      0.904114      0.625000     Biso  1.000000 Fe
   Fe176      1.0     0.428571      0.883501      0.500000     Biso  1.000000 Fe
   Fe177      1.0     0.357143      0.862117      0.875000     Biso  1.000000 Fe
   Fe178      1.0     0.285714      0.883501      0.750000     Biso  1.000000 Fe
   Fe179      1.0     0.357143      0.904114      0.875000     Biso  1.000000 Fe
   Fe180      1.0     0.428571      0.883501      0.750000     Biso  1.000000 Fe
   Fe181      1.0     0.500000      0.862117      0.125000     Biso  1.000000 Fe
   Fe182      1.0     0.500000      0.862117      0.375000     Biso  1.000000 Fe
   Fe183      1.0     0.500000      0.862117      0.625000     Biso  1.000000 Fe
   Fe184      1.0     0.500000      0.862117      0.875000     Biso  1.000000 Fe
   Fe185      1.0     0.642857      0.862117      0.125000     Biso  1.000000 Fe
   Fe186      1.0     0.500000      0.904114      0.125000     Biso  1.000000 Fe
   Fe187      1.0     0.642857      0.904114      0.125000     Biso  1.000000 Fe
   Fe188      1.0     0.642857      0.862117      0.375000     Biso  1.000000 Fe
   Fe189      1.0     0.500000      0.904114      0.375000     Biso  1.000000 Fe
   Fe190      1.0     0.571429      0.883501      0.250000     Biso  1.000000 Fe
   Fe191      1.0     0.642857      0.904114      0.375000     Biso  1.000000 Fe
   Fe192      1.0     0.714286      0.883501      0.250000     Biso  1.000000 Fe
   Fe193      1.0     0.571429      0.883501      0.000000     Biso  1.000000 Fe
   Fe194      1.0     0.714286      0.883501      0.000000     Biso  1.000000 Fe
   Fe195      1.0     0.642857      0.862117      0.625000     Biso  1.000000 Fe
   Fe196      1.0     0.500000      0.904114      0.625000     Biso  1.000000 Fe
   Fe197      1.0     0.571429      0.883501      0.500000     Biso  1.000000 Fe
   Fe198      1.0     0.642857      0.904114      0.625000     Biso  1.000000 Fe
   Fe199      1.0     0.714286      0.883501      0.500000     Biso  1.000000 Fe
   Fe200      1.0     0.642857      0.862117      0.875000     Biso  1.000000 Fe
   Fe201      1.0     0.500000      0.904114      0.875000     Biso  1.000000 Fe
   Fe202      1.0     0.571429      0.883501      0.750000     Biso  1.000000 Fe
   Fe203      1.0     0.642857      0.904114      0.875000     Biso  1.000000 Fe
   Fe204      1.0     0.714286      0.883501      0.750000     Biso  1.000000 Fe
   Fe205      1.0     0.785714      0.862117      0.125000     Biso  1.000000 Fe
   Fe206      1.0     0.928571      0.862117      0.125000     Biso  1.000000 Fe
   Fe207      1.0     0.785714      0.904114      0.125000     Biso  1.000000 Fe
   Fe208      1.0     0.928571      0.904114      0.125000     Biso  1.000000 Fe
   Fe209      1.0     0.785714      0.862117      0.375000     Biso  1.000000 Fe
   Fe210      1.0     0.928571      0.862117      0.375000     Biso  1.000000 Fe
   Fe211      1.0     0.785714      0.904114      0.375000     Biso  1.000000 Fe
   Fe212      1.0     0.857143      0.883501      0.250000     Biso  1.000000 Fe
   Fe213      1.0     0.928571      0.904114      0.375000     Biso  1.000000 Fe
   Fe214      1.0     0.857143      0.883501      0.000000     Biso  1.000000 Fe
   Fe215      1.0     0.857143      0.883501      0.500000     Biso  1.000000 Fe
   Fe216      1.0     0.785714      0.862117      0.625000     Biso  1.000000 Fe
   Fe217      1.0     0.928571      0.862117      0.625000     Biso  1.000000 Fe
   Fe218      1.0     0.785714      0.904114      0.625000     Biso  1.000000 Fe
   Fe219      1.0     0.928571      0.904114      0.625000     Biso  1.000000 Fe
   Fe220      1.0     0.785714      0.862117      0.875000     Biso  1.000000 Fe
   Fe221      1.0     0.928571      0.862117      0.875000     Biso  1.000000 Fe
   Fe222      1.0     0.785714      0.904114      0.875000     Biso  1.000000 Fe
   Fe223      1.0     0.857143      0.883501      0.750000     Biso  1.000000 Fe
   Fe224      1.0     0.928571      0.904114      0.875000     Biso  1.000000 Fe
   H1         1.0     0.065679      0.266109      0.205558     Biso  1.000000 H
   H2         1.0     0.148959      0.281661      0.244392     Biso  1.000000 H
   H3         1.0     0.063313      0.278045      0.342154     Biso  1.000000 H
   H4         1.0     0.214337      0.293127      0.238742     Biso  1.000000 H
   H5         1.0     0.116381      0.288245      0.110905     Biso  1.000000 H
   H6         1.0     0.113357      0.304092      0.347599     Biso  1.000000 H
   H7         1.0     0.060939      0.305290      0.440740     Biso  1.000000 H
   H8         1.0     0.014856      0.287749      0.106156     Biso  1.000000 H
   H9         1.0     0.010560      0.303497      0.343158     Biso  1.000000 H
   H10        1.0     0.153137      0.303014      0.769470     Biso  1.000000 H
   H11        1.0     0.069852      0.287360      0.733111     Biso  1.000000 H
   H12        1.0     0.068830      0.299147      0.870314     Biso  1.000000 H
   H13        1.0     0.248951      0.299816      0.107795     Biso  1.000000 H
   H14        1.0     0.477644      0.280183      0.062857     Biso  1.000000 H
   H15        1.0     0.442620      0.273191      0.192659     Biso  1.000000 H
   H16        1.0     0.300963      0.278846      0.210617     Biso  1.000000 H
   H17        1.0     0.441248      0.302677      0.166526     Biso  1.000000 H
   H18        1.0     0.473343      0.295932      0.299864     Biso  1.000000 H
   H19        1.0     0.383285      0.294935      0.247807     Biso  1.000000 H
   H20        1.0     0.350625      0.300919      0.113067     Biso  1.000000 H
   H21        1.0     0.297694      0.291198      0.345348     Biso  1.000000 H
   H22        1.0     0.478913      0.301093      0.594697     Biso  1.000000 H
   H23        1.0     0.446786      0.294222      0.725957     Biso  1.000000 H
   H24        1.0     0.305239      0.300145      0.737930     Biso  1.000000 H
   H25        1.0     0.527892      0.258672      0.161076     Biso  1.000000 H
   H26        1.0     0.579226      0.280671      0.067590     Biso  1.000000 H
   H27        1.0     0.677164      0.285551      0.195441     Biso  1.000000 H
   H28        1.0     0.611807      0.274085      0.201093     Biso  1.000000 H
   H29        1.0     0.526101      0.270458      0.298899     Biso  1.000000 H
   H30        1.0     0.532683      0.279780      0.689817     Biso  1.000000 H
   H31        1.0     0.711786      0.292244      0.064502     Biso  1.000000 H
   H32        1.0     0.610234      0.303538      0.174041     Biso  1.000000 H
   H33        1.0     0.576192      0.296520      0.304302     Biso  1.000000 H
   H34        1.0     0.523753      0.297719      0.397429     Biso  1.000000 H
   H35        1.0     0.582312      0.301995      0.594256     Biso  1.000000 H
   H36        1.0     0.615957      0.295442      0.726173     Biso  1.000000 H
   H37        1.0     0.531655      0.291575      0.826998     Biso  1.000000 H
   H38        1.0     0.526762      0.306612      0.070047     Biso  1.000000 H
   H39        1.0     0.681266      0.306648      0.727431     Biso  1.000000 H
   H40        1.0     0.763778      0.271265      0.167325     Biso  1.000000 H
   H41        1.0     0.760501      0.283624      0.302042     Biso  1.000000 H
   H42        1.0     0.979837      0.280746      0.235961     Biso  1.000000 H
   H43        1.0     0.813395      0.293355      0.069736     Biso  1.000000 H
   H44        1.0     0.846225      0.287374      0.204286     Biso  1.000000 H
   H45        1.0     0.768044      0.292570      0.694644     Biso  1.000000 H
   H46        1.0     0.765667      0.304783      0.829993     Biso  1.000000 H
   H47        1.0     0.983980      0.301787      0.769244     Biso  1.000000 H
   H48        1.0     0.243091      0.316437      0.342108     Biso  1.000000 H
   H49        1.0     0.211271      0.322514      0.207209     Biso  1.000000 H
   H50        1.0     0.207099      0.332546      0.472874     Biso  1.000000 H
   H51        1.0     0.147399      0.311110      0.217336     Biso  1.000000 H
   H52        1.0     0.144121      0.320773      0.483799     Biso  1.000000 H
   H53        1.0     0.111394      0.327698      0.352275     Biso  1.000000 H
   H54        1.0     0.063948      0.314184      0.113340     Biso  1.000000 H
   H55        1.0     0.061604      0.325672      0.251217     Biso  1.000000 H
   H56        1.0     0.009453      0.327548      0.347769     Biso  1.000000 H
   H57        1.0     0.137642      0.333202      0.181174     Biso  1.000000 H
   H58        1.0     0.241748      0.340255      0.344960     Biso  1.000000 H
   H59        1.0     0.219762      0.348977      0.227190     Biso  1.000000 H
   H60        1.0     0.188791      0.355713      0.092441     Biso  1.000000 H
   H61        1.0     0.133438      0.344791      0.318637     Biso  1.000000 H
   H62        1.0     0.142154      0.350374      0.459580     Biso  1.000000 H
   H63        1.0     0.086557      0.354758      0.082858     Biso  1.000000 H
   H64        1.0     0.050804      0.347391      0.210610     Biso  1.000000 H
   H65        1.0     0.057612      0.353536      0.359911     Biso  1.000000 H
   H66        1.0     0.218433      0.314221      0.770731     Biso  1.000000 H
   H67        1.0     0.150920      0.332466      0.742652     Biso  1.000000 H
   H68        1.0     0.119478      0.309567      0.637548     Biso  1.000000 H
   H69        1.0     0.118129      0.325454      0.874895     Biso  1.000000 H
   H70        1.0     0.059710      0.316577      0.579421     Biso  1.000000 H
   H71        1.0     0.065365      0.335227      0.643325     Biso  1.000000 H
   H72        1.0     0.016114      0.308660      0.637991     Biso  1.000000 H
   H73        1.0     0.015284      0.324741      0.874409     Biso  1.000000 H
   H74        1.0     0.236240      0.355230      0.583944     Biso  1.000000 H
   H75        1.0     0.214698      0.343608      0.737589     Biso  1.000000 H
   H76        1.0     0.141309      0.354355      0.703659     Biso  1.000000 H
   H77        1.0     0.110358      0.343095      0.589383     Biso  1.000000 H
   H78        1.0     0.065127      0.346938      0.780615     Biso  1.000000 H
   H79        1.0     0.006086      0.341981      0.588403     Biso  1.000000 H
   H80        1.0     0.247454      0.337743      0.872460     Biso  1.000000 H
   H81        1.0     0.203981      0.362060      0.451190     Biso  1.000000 H
   H82        1.0     0.217045      0.378487      0.203853     Biso  1.000000 H
   H83        1.0     0.181236      0.370926      0.330519     Biso  1.000000 H
   H84        1.0     0.134992      0.381227      0.094056     Biso  1.000000 H
   H85        1.0     0.131010      0.372467      0.422296     Biso  1.000000 H
   H86        1.0     0.079555      0.370249      0.320541     Biso  1.000000 H
   H87        1.0     0.048114      0.376897      0.186773     Biso  1.000000 H
   H88        1.0     0.056240      0.364647      0.499388     Biso  1.000000 H
   H89        1.0     0.223283      0.370163      0.748476     Biso  1.000000 H
   H90        1.0     0.191068      0.377060      0.615837     Biso  1.000000 H
   H91        1.0     0.138123      0.365288      0.843694     Biso  1.000000 H
   H92        1.0     0.086881      0.375587      0.612337     Biso  1.000000 H
   H93        1.0     0.054304      0.368211      0.740715     Biso  1.000000 H
   H94        1.0     0.129529      0.384361      0.558374     Biso  1.000000 H
   H95        1.0     0.472216      0.319978      0.304468     Biso  1.000000 H
   H96        1.0     0.437789      0.312113      0.432347     Biso  1.000000 H
   H97        1.0     0.380334      0.324298      0.217455     Biso  1.000000 H
   H98        1.0     0.376028      0.334307      0.484460     Biso  1.000000 H
   H99        1.0     0.345992      0.317443      0.347867     Biso  1.000000 H
   H100       1.0     0.296880      0.326575      0.111637     Biso  1.000000 H
   H101       1.0     0.293543      0.338498      0.247613     Biso  1.000000 H
   H102       1.0     0.293742      0.318433      0.440696     Biso  1.000000 H
   H103       1.0     0.435925      0.341691      0.413854     Biso  1.000000 H
   H104       1.0     0.368210      0.346683      0.177157     Biso  1.000000 H
   H105       1.0     0.343739      0.340909      0.351447     Biso  1.000000 H
   H106       1.0     0.468840      0.334415      0.545060     Biso  1.000000 H
   H107       1.0     0.444714      0.323719      0.698187     Biso  1.000000 H
   H108       1.0     0.478067      0.317174      0.831091     Biso  1.000000 H
   H109       1.0     0.387391      0.316327      0.773463     Biso  1.000000 H
   H110       1.0     0.353926      0.322303      0.639911     Biso  1.000000 H
   H111       1.0     0.302851      0.312352      0.873293     Biso  1.000000 H
   H112       1.0     0.291099      0.329936      0.578350     Biso  1.000000 H
   H113       1.0     0.250674      0.320747      0.638657     Biso  1.000000 H
   H114       1.0     0.383811      0.345707      0.743478     Biso  1.000000 H
   H115       1.0     0.350293      0.338866      0.875497     Biso  1.000000 H
   H116       1.0     0.340462      0.356715      0.587490     Biso  1.000000 H
   H117       1.0     0.298450      0.347626      0.641459     Biso  1.000000 H
   H118       1.0     0.451039      0.362226      0.220315     Biso  1.000000 H
   H119       1.0     0.418404      0.369388      0.088006     Biso  1.000000 H
   H120       1.0     0.365922      0.357978      0.315952     Biso  1.000000 H
   H121       1.0     0.373111      0.363857      0.458594     Biso  1.000000 H
   H122       1.0     0.316117      0.368477      0.083393     Biso  1.000000 H
   H123       1.0     0.312249      0.383594      0.322191     Biso  1.000000 H
   H124       1.0     0.282068      0.360959      0.212629     Biso  1.000000 H
   H125       1.0     0.288925      0.366473      0.355961     Biso  1.000000 H
   H126       1.0     0.286200      0.377870      0.494195     Biso  1.000000 H
   H127       1.0     0.296866      0.359821      0.776622     Biso  1.000000 H
   H128       1.0     0.454855      0.383382      0.745338     Biso  1.000000 H
   H129       1.0     0.372266      0.367808      0.702154     Biso  1.000000 H
   H130       1.0     0.370380      0.378536      0.843025     Biso  1.000000 H
   H131       1.0     0.285954      0.381806      0.743362     Biso  1.000000 H
   H132       1.0     0.413967      0.383966      0.328224     Biso  1.000000 H
   H133       1.0     0.600472      0.325631      0.137878     Biso  1.000000 H
   H134       1.0     0.674088      0.314938      0.163915     Biso  1.000000 H
   H135       1.0     0.524421      0.318102      0.207922     Biso  1.000000 H
   H136       1.0     0.705920      0.308860      0.298816     Biso  1.000000 H
   H137       1.0     0.574223      0.320124      0.308983     Biso  1.000000 H
   H138       1.0     0.704579      0.332681      0.301663     Biso  1.000000 H
   H139       1.0     0.669931      0.324972      0.429577     Biso  1.000000 H
   H140       1.0     0.606938      0.313200      0.440506     Biso  1.000000 H
   H141       1.0     0.549362      0.347188      0.039577     Biso  1.000000 H
   H142       1.0     0.651620      0.348138      0.049144     Biso  1.000000 H
   H143       1.0     0.513600      0.339821      0.167318     Biso  1.000000 H
   H144       1.0     0.682581      0.341404      0.183894     Biso  1.000000 H
   H145       1.0     0.596271      0.337218      0.275329     Biso  1.000000 H
   H146       1.0     0.520404      0.345966      0.316609     Biso  1.000000 H
   H147       1.0     0.666796      0.354487      0.407895     Biso  1.000000 H
   H148       1.0     0.604982      0.342799      0.416273     Biso  1.000000 H
   H149       1.0     0.519028      0.357079      0.456069     Biso  1.000000 H
   H150       1.0     0.744893      0.353383      0.169322     Biso  1.000000 H
   H151       1.0     0.522523      0.309004      0.536103     Biso  1.000000 H
   H152       1.0     0.573193      0.335521      0.546087     Biso  1.000000 H
   H153       1.0     0.528181      0.327656      0.600021     Biso  1.000000 H
   H154       1.0     0.713501      0.313173      0.595372     Biso  1.000000 H
   H155       1.0     0.613749      0.324890      0.699349     Biso  1.000000 H
   H156       1.0     0.677520      0.336033      0.694290     Biso  1.000000 H
   H157       1.0     0.580962      0.317881      0.831597     Biso  1.000000 H
   H158       1.0     0.710286      0.330167      0.829170     Biso  1.000000 H
   H159       1.0     0.527936      0.339369      0.737327     Biso  1.000000 H
   H160       1.0     0.699067      0.347654      0.540648     Biso  1.000000 H
   H161       1.0     0.604142      0.346783      0.660364     Biso  1.000000 H
   H162       1.0     0.597805      0.373654      0.050764     Biso  1.000000 H
   H163       1.0     0.511048      0.369345      0.143309     Biso  1.000000 H
   H164       1.0     0.679876      0.370915      0.160557     Biso  1.000000 H
   H165       1.0     0.542340      0.362684      0.277245     Biso  1.000000 H
   H166       1.0     0.644067      0.363352      0.287222     Biso  1.000000 H
   H167       1.0     0.593831      0.364896      0.378986     Biso  1.000000 H
   H168       1.0     0.506847      0.378901      0.413287     Biso  1.000000 H
   H169       1.0     0.675984      0.381070      0.419248     Biso  1.000000 H
   H170       1.0     0.749029      0.370299      0.450898     Biso  1.000000 H
   H171       1.0     0.592349      0.376788      0.515058     Biso  1.000000 H
   H172       1.0     0.742578      0.382965      0.147154     Biso  1.000000 H
   H173       1.0     0.549683      0.368018      0.569033     Biso  1.000000 H
   H174       1.0     0.653898      0.369485      0.572545     Biso  1.000000 H
   H175       1.0     0.517094      0.360642      0.697422     Biso  1.000000 H
   H176       1.0     0.686100      0.362589      0.705176     Biso  1.000000 H
   H177       1.0     0.546260      0.383354      0.806740     Biso  1.000000 H
   H178       1.0     0.600952      0.357715      0.800383     Biso  1.000000 H
   H179       1.0     0.748787      0.374232      0.700059     Biso  1.000000 H
   H180       1.0     0.648353      0.384418      0.812106     Biso  1.000000 H
   H181       1.0     0.759708      0.319000      0.068317     Biso  1.000000 H
   H182       1.0     0.843102      0.316728      0.174099     Biso  1.000000 H
   H183       1.0     0.756366      0.330926      0.204306     Biso  1.000000 H
   H184       1.0     0.808755      0.309871      0.304560     Biso  1.000000 H
   H185       1.0     0.806517      0.333344      0.308144     Biso  1.000000 H
   H186       1.0     0.756550      0.310861      0.397396     Biso  1.000000 H
   H187       1.0     0.838960      0.326759      0.440977     Biso  1.000000 H
   H188       1.0     0.978308      0.310223      0.210012     Biso  1.000000 H
   H189       1.0     0.975001      0.319676      0.475677     Biso  1.000000 H
   H190       1.0     0.831000      0.339114      0.133831     Biso  1.000000 H
   H191       1.0     0.913962      0.354672      0.176746     Biso  1.000000 H
   H192       1.0     0.828714      0.350409      0.272640     Biso  1.000000 H
   H193       1.0     0.835903      0.356288      0.415293     Biso  1.000000 H
   H194       1.0     0.972991      0.349243      0.457410     Biso  1.000000 H
   H195       1.0     0.753912      0.322364      0.535058     Biso  1.000000 H
   H196       1.0     0.816700      0.314738      0.596617     Biso  1.000000 H
   H197       1.0     0.850355      0.308781      0.729976     Biso  1.000000 H
   H198       1.0     0.813089      0.331294      0.832210     Biso  1.000000 H
   H199       1.0     0.981755      0.331270      0.741717     Biso  1.000000 H
   H200       1.0     0.803270      0.349147      0.544204     Biso  1.000000 H
   H201       1.0     0.761269      0.340054      0.598150     Biso  1.000000 H
   H202       1.0     0.846608      0.338138      0.700216     Biso  1.000000 H
   H203       1.0     0.759697      0.352249      0.733326     Biso  1.000000 H
   H204       1.0     0.778954      0.360903      0.040088     Biso  1.000000 H
   H205       1.0     0.881169      0.361822      0.044639     Biso  1.000000 H
   H206       1.0     0.775080      0.376019      0.278898     Biso  1.000000 H
   H207       1.0     0.876725      0.376397      0.284909     Biso  1.000000 H
   H208       1.0     0.751761      0.358901      0.312654     Biso  1.000000 H
   H209       1.0     0.825672      0.378050      0.380837     Biso  1.000000 H
   H210       1.0     0.780386      0.381729      0.570428     Biso  1.000000 H
   H211       1.0     0.884551      0.383035      0.571167     Biso  1.000000 H
   H212       1.0     0.835071      0.360238      0.658875     Biso  1.000000 H
   H213       1.0     0.917815      0.375831      0.701861     Biso  1.000000 H
   H214       1.0     0.833197      0.370964      0.799731     Biso  1.000000 H
   H215       1.0     0.911626      0.384230      0.157544     Biso  1.000000 H
   H216       1.0     0.213168      0.388643      0.462542     Biso  1.000000 H
   H217       1.0     0.180549      0.394879      0.328702     Biso  1.000000 H
   H218       1.0     0.130372      0.392670      0.232015     Biso  1.000000 H
   H219       1.0     0.077322      0.393696      0.325659     Biso  1.000000 H
   H220       1.0     0.044078      0.386468      0.456620     Biso  1.000000 H
   H221       1.0     0.209215      0.418087      0.431788     Biso  1.000000 H
   H222       1.0     0.124809      0.420031      0.329221     Biso  1.000000 H
   H223       1.0     0.040160      0.415867      0.429359     Biso  1.000000 H
   H224       1.0     0.219778      0.399710      0.726591     Biso  1.000000 H
   H225       1.0     0.185523      0.391991      0.855399     Biso  1.000000 H
   H226       1.0     0.135589      0.402303      0.622409     Biso  1.000000 H
   H227       1.0     0.083478      0.390918      0.850062     Biso  1.000000 H
   H228       1.0     0.050869      0.397723      0.717091     Biso  1.000000 H
   H229       1.0     0.176999      0.411290      0.563323     Biso  1.000000 H
   H230       1.0     0.133059      0.413712      0.760706     Biso  1.000000 H
   H231       1.0     0.073968      0.409683      0.562068     Biso  1.000000 H
   H232       1.0     0.122412      0.432069      0.465185     Biso  1.000000 H
   H233       1.0     0.088005      0.448040      0.231300     Biso  1.000000 H
   H234       1.0     0.122970      0.455042      0.101414     Biso  1.000000 H
   H235       1.0     0.173799      0.433421      0.200926     Biso  1.000000 H
   H236       1.0     0.171466      0.445338      0.337400     Biso  1.000000 H
   H237       1.0     0.224539      0.455537      0.106157     Biso  1.000000 H
   H238       1.0     0.177977      0.454665      0.728336     Biso  1.000000 H
   H239       1.0     0.448845      0.391794      0.200897     Biso  1.000000 H
   H240       1.0     0.365444      0.394916      0.094527     Biso  1.000000 H
   H241       1.0     0.362866      0.385620      0.424137     Biso  1.000000 H
   H242       1.0     0.279766      0.390538      0.190444     Biso  1.000000 H
   H243       1.0     0.276652      0.399884      0.462394     Biso  1.000000 H
   H244       1.0     0.445690      0.401526      0.461636     Biso  1.000000 H
   H245       1.0     0.412095      0.407939      0.329117     Biso  1.000000 H
   H246       1.0     0.362575      0.406068      0.233789     Biso  1.000000 H
   H247       1.0     0.308654      0.406904      0.329648     Biso  1.000000 H
   H248       1.0     0.273566      0.429309      0.433584     Biso  1.000000 H
   H249       1.0     0.421771      0.390602      0.614457     Biso  1.000000 H
   H250       1.0     0.362574      0.397433      0.560628     Biso  1.000000 H
   H251       1.0     0.317555      0.389304      0.613715     Biso  1.000000 H
   H252       1.0     0.452101      0.412964      0.726652     Biso  1.000000 H
   H253       1.0     0.418163      0.405065      0.855397     Biso  1.000000 H
   H254       1.0     0.410653      0.424180      0.564484     Biso  1.000000 H
   H255       1.0     0.367267      0.415927      0.624167     Biso  1.000000 H
   H256       1.0     0.365778      0.427101      0.763445     Biso  1.000000 H
   H257       1.0     0.316160      0.404299      0.852414     Biso  1.000000 H
   H258       1.0     0.307779      0.423049      0.565540     Biso  1.000000 H
   H259       1.0     0.283105      0.411380      0.720646     Biso  1.000000 H
   H260       1.0     0.257084      0.448954      0.239737     Biso  1.000000 H
   H261       1.0     0.442700      0.430998      0.432374     Biso  1.000000 H
   H262       1.0     0.357491      0.433158      0.331367     Biso  1.000000 H
   H263       1.0     0.356410      0.445238      0.467237     Biso  1.000000 H
   H264       1.0     0.409096      0.446153      0.205946     Biso  1.000000 H
   H265       1.0     0.322487      0.460416      0.234077     Biso  1.000000 H
   H266       1.0     0.405830      0.458487      0.340583     Biso  1.000000 H
   H267       1.0     0.593183      0.385097      0.188720     Biso  1.000000 H
   H268       1.0     0.540086      0.386123      0.282365     Biso  1.000000 H
   H269       1.0     0.643376      0.387303      0.285413     Biso  1.000000 H
   H270       1.0     0.739486      0.392310      0.419096     Biso  1.000000 H
   H271       1.0     0.636628      0.425848      0.157630     Biso  1.000000 H
   H272       1.0     0.587614      0.412459      0.285930     Biso  1.000000 H
   H273       1.0     0.503111      0.408311      0.385824     Biso  1.000000 H
   H274       1.0     0.672047      0.410513      0.388488     Biso  1.000000 H
   H275       1.0     0.736384      0.421735      0.390290     Biso  1.000000 H
   H276       1.0     0.585211      0.424496      0.421892     Biso  1.000000 H
   H277       1.0     0.536725      0.402118      0.518757     Biso  1.000000 H
   H278       1.0     0.639833      0.403717      0.520032     Biso  1.000000 H
   H279       1.0     0.598408      0.394732      0.579107     Biso  1.000000 H
   H280       1.0     0.513812      0.390175      0.673592     Biso  1.000000 H
   H281       1.0     0.682608      0.392135      0.683289     Biso  1.000000 H
   H282       1.0     0.595867      0.406138      0.717417     Biso  1.000000 H
   H283       1.0     0.745926      0.403807      0.677348     Biso  1.000000 H
   H284       1.0     0.585772      0.447474      0.058135     Biso  1.000000 H
   H285       1.0     0.687364      0.447963      0.062863     Biso  1.000000 H
   H286       1.0     0.550804      0.440473      0.188023     Biso  1.000000 H
   H287       1.0     0.719900      0.441380      0.196442     Biso  1.000000 H
   H288       1.0     0.634293      0.437765      0.294094     Biso  1.000000 H
   H289       1.0     0.640809      0.447090      0.685043     Biso  1.000000 H
   H290       1.0     0.639782      0.458872      0.822247     Biso  1.000000 H
   H291       1.0     0.554916      0.461517      0.721189     Biso  1.000000 H
   H292       1.0     0.828268      0.387342      0.051206     Biso  1.000000 H
   H293       1.0     0.825395      0.398497      0.190482     Biso  1.000000 H
   H294       1.0     0.771489      0.399330      0.286356     Biso  1.000000 H
   H295       1.0     0.874872      0.400374      0.285812     Biso  1.000000 H
   H296       1.0     0.908649      0.393979      0.418111     Biso  1.000000 H
   H297       1.0     0.825385      0.389860      0.517335     Biso  1.000000 H
   H298       1.0     0.820324      0.425585      0.288060     Biso  1.000000 H
   H299       1.0     0.905496      0.423431      0.389088     Biso  1.000000 H
   H300       1.0     0.770605      0.415474      0.522247     Biso  1.000000 H
   H301       1.0     0.873458      0.416613      0.521199     Biso  1.000000 H
   H302       1.0     0.778993      0.396726      0.809124     Biso  1.000000 H
   H303       1.0     0.880962      0.397495      0.812113     Biso  1.000000 H
   H304       1.0     0.830089      0.408355      0.580860     Biso  1.000000 H
   H305       1.0     0.914906      0.405398      0.683389     Biso  1.000000 H
   H306       1.0     0.828610      0.419527      0.720149     Biso  1.000000 H
   H307       1.0     0.819905      0.459536      0.059763     Biso  1.000000 H
   H308       1.0     0.921531      0.460652      0.064981     Biso  1.000000 H
   H309       1.0     0.871898      0.438580      0.162653     Biso  1.000000 H
   H310       1.0     0.785313      0.452841      0.190779     Biso  1.000000 H
   H311       1.0     0.954344      0.454671      0.199567     Biso  1.000000 H
   H312       1.0     0.868635      0.450915      0.297286     Biso  1.000000 H
   H313       1.0     0.819240      0.437665      0.423939     Biso  1.000000 H
   H314       1.0     0.876160      0.459873      0.689875     Biso  1.000000 H
   H315       1.0     0.117586      0.494851      0.343023     Biso  1.000000 H
   H316       1.0     0.083131      0.486976      0.470925     Biso  1.000000 H
   H317       1.0     0.219524      0.495001      0.347528     Biso  1.000000 H
   H318       1.0     0.169067      0.472586      0.436007     Biso  1.000000 H
   H319       1.0     0.118685      0.470796      0.338418     Biso  1.000000 H
   H320       1.0     0.086436      0.477528      0.205268     Biso  1.000000 H
   H321       1.0     0.169736      0.492972      0.246469     Biso  1.000000 H
   H322       1.0     0.172077      0.481491      0.108603     Biso  1.000000 H
   H323       1.0     0.221498      0.471390      0.342858     Biso  1.000000 H
   H324       1.0     0.089887      0.498572      0.736966     Biso  1.000000 H
   H325       1.0     0.092118      0.469084      0.764488     Biso  1.000000 H
   H326       1.0     0.123417      0.492045      0.869654     Biso  1.000000 H
   H327       1.0     0.124242      0.475957      0.633232     Biso  1.000000 H
   H328       1.0     0.176953      0.466443      0.865561     Biso  1.000000 H
   H329       1.0     0.226258      0.492760      0.870140     Biso  1.000000 H
   H330       1.0     0.227618      0.476863      0.632792     Biso  1.000000 H
   H331       1.0     0.167836      0.483877      0.574666     Biso  1.000000 H
   H332       1.0     0.022088      0.521973      0.171997     Biso  1.000000 H
   H333       1.0     0.081125      0.516543      0.452658     Biso  1.000000 H
   H334       1.0     0.165743      0.520838      0.355159     Biso  1.000000 H
   H335       1.0     0.164373      0.531948      0.494641     Biso  1.000000 H
   H336       1.0     0.194690      0.522059      0.078107     Biso  1.000000 H
   H337       1.0     0.245771      0.500505      0.176423     Biso  1.000000 H
   H338       1.0     0.158937      0.514694      0.205859     Biso  1.000000 H
   H339       1.0     0.241568      0.512094      0.313890     Biso  1.000000 H
   H340       1.0     0.187687      0.537551      0.315788     Biso  1.000000 H
   H341       1.0     0.173259      0.514236      0.775867     Biso  1.000000 H
   H342       1.0     0.173494      0.502530      0.638570     Biso  1.000000 H
   H343       1.0     0.249439      0.521658      0.698909     Biso  1.000000 H
   H344       1.0     0.114218      0.509284      0.583653     Biso  1.000000 H
   H345       1.0     0.218488      0.510398      0.584633     Biso  1.000000 H
   H346       1.0     0.162434      0.535512      0.735963     Biso  1.000000 H
   H347       1.0     0.246252      0.532588      0.838945     Biso  1.000000 H
   H348       1.0     0.250281      0.517674      0.454829     Biso  1.000000 H
   H349       1.0     0.252258      0.488072      0.479042     Biso  1.000000 H
   H350       1.0     0.255536      0.478416      0.212602     Biso  1.000000 H
   H351       1.0     0.491410      0.462229      0.243090     Biso  1.000000 H
   H352       1.0     0.401868      0.485731      0.435956     Biso  1.000000 H
   H353       1.0     0.357071      0.467109      0.103058     Biso  1.000000 H
   H354       1.0     0.405011      0.493878      0.106896     Biso  1.000000 H
   H355       1.0     0.458764      0.468218      0.108315     Biso  1.000000 H
   H356       1.0     0.319401      0.489816      0.202466     Biso  1.000000 H
   H357       1.0     0.488461      0.491602      0.212707     Biso  1.000000 H
   H358       1.0     0.351218      0.483735      0.337367     Biso  1.000000 H
   H359       1.0     0.454124      0.484745      0.343124     Biso  1.000000 H
   H360       1.0     0.259050      0.499769      0.737902     Biso  1.000000 H
   H361       1.0     0.261271      0.470310      0.764698     Biso  1.000000 H
   H362       1.0     0.326568      0.481519      0.765969     Biso  1.000000 H
   H363       1.0     0.358805      0.488045      0.633903     Biso  1.000000 H
   H364       1.0     0.410978      0.479651      0.868539     Biso  1.000000 H
   H365       1.0     0.413356      0.467447      0.733159     Biso  1.000000 H
   H366       1.0     0.462059      0.489604      0.635156     Biso  1.000000 H
   H367       1.0     0.495525      0.483628      0.768716     Biso  1.000000 H
   H368       1.0     0.399228      0.497236      0.573599     Biso  1.000000 H
   H369       1.0     0.312112      0.529361      0.446440     Biso  1.000000 H
   H370       1.0     0.349879      0.507558      0.340214     Biso  1.000000 H
   H371       1.0     0.315229      0.499848      0.468123     Biso  1.000000 H
   H372       1.0     0.451869      0.508211      0.346700     Biso  1.000000 H
   H373       1.0     0.481239      0.531158      0.453842     Biso  1.000000 H
   H374       1.0     0.484161      0.501609      0.479710     Biso  1.000000 H
   H375       1.0     0.476342      0.513986      0.172404     Biso  1.000000 H
   H376       1.0     0.390200      0.528260      0.207879     Biso  1.000000 H
   H377       1.0     0.474053      0.525280      0.311201     Biso  1.000000 H
   H378       1.0     0.401672      0.505797      0.242866     Biso  1.000000 H
   H379       1.0     0.296921      0.523015      0.087692     Biso  1.000000 H
   H380       1.0     0.327892      0.516280      0.222441     Biso  1.000000 H
   H381       1.0     0.397055      0.533776      0.351208     Biso  1.000000 H
   H382       1.0     0.424245      0.535778      0.078639     Biso  1.000000 H
   H383       1.0     0.289365      0.538228      0.325767     Biso  1.000000 H
   H384       1.0     0.322829      0.510911      0.732840     Biso  1.000000 H
   H385       1.0     0.355583      0.505046      0.867708     Biso  1.000000 H
   H386       1.0     0.404997      0.527121      0.771870     Biso  1.000000 H
   H387       1.0     0.406581      0.514929      0.636704     Biso  1.000000 H
   H388       1.0     0.458422      0.506168      0.870742     Biso  1.000000 H
   H389       1.0     0.491939      0.513009      0.738727     Biso  1.000000 H
   H390       1.0     0.344372      0.522532      0.579193     Biso  1.000000 H
   H391       1.0     0.448594      0.524018      0.582736     Biso  1.000000 H
   H392       1.0     0.331413      0.537465      0.743725     Biso  1.000000 H
   H393       1.0     0.480395      0.535113      0.697401     Biso  1.000000 H
   H394       1.0     0.581467      0.463230      0.295118     Biso  1.000000 H
   H395       1.0     0.684330      0.463817      0.299564     Biso  1.000000 H
   H396       1.0     0.634885      0.473918      0.065310     Biso  1.000000 H
   H397       1.0     0.708599      0.492933      0.133126     Biso  1.000000 H
   H398       1.0     0.549385      0.469977      0.161788     Biso  1.000000 H
   H399       1.0     0.718366      0.470842      0.169305     Biso  1.000000 H
   H400       1.0     0.632542      0.485403      0.203171     Biso  1.000000 H
   H401       1.0     0.580346      0.487281      0.299723     Biso  1.000000 H
   H402       1.0     0.682350      0.487427      0.304237     Biso  1.000000 H
   H403       1.0     0.631882      0.465015      0.392698     Biso  1.000000 H
   H404       1.0     0.545913      0.479413      0.427591     Biso  1.000000 H
   H405       1.0     0.715071      0.480500      0.435751     Biso  1.000000 H
   H406       1.0     0.724084      0.462738      0.721401     Biso  1.000000 H
   H407       1.0     0.630650      0.476304      0.531349     Biso  1.000000 H
   H408       1.0     0.587037      0.468390      0.589931     Biso  1.000000 H
   H409       1.0     0.636307      0.494960      0.595268     Biso  1.000000 H
   H410       1.0     0.690449      0.469289      0.589497     Biso  1.000000 H
   H411       1.0     0.552843      0.491023      0.693442     Biso  1.000000 H
   H412       1.0     0.721879      0.492195      0.694603     Biso  1.000000 H
   H413       1.0     0.586199      0.484479      0.826337     Biso  1.000000 H
   H414       1.0     0.689087      0.485186      0.826844     Biso  1.000000 H
   H415       1.0     0.657491      0.514490      0.034828     Biso  1.000000 H
   H416       1.0     0.621732      0.507125      0.162569     Biso  1.000000 H
   H417       1.0     0.650469      0.529986      0.272492     Biso  1.000000 H
   H418       1.0     0.704398      0.504521      0.270581     Biso  1.000000 H
   H419       1.0     0.628531      0.513268      0.311858     Biso  1.000000 H
   H420       1.0     0.544059      0.508992      0.409103     Biso  1.000000 H
   H421       1.0     0.713107      0.510100      0.411522     Biso  1.000000 H
   H422       1.0     0.627156      0.524379      0.451321     Biso  1.000000 H
   H423       1.0     0.559168      0.529527      0.215565     Biso  1.000000 H
   H424       1.0     0.619175      0.536648      0.138560     Biso  1.000000 H
   H425       1.0     0.701961      0.532199      0.374234     Biso  1.000000 H
   H426       1.0     0.526536      0.536688      0.083252     Biso  1.000000 H
   H427       1.0     0.576972      0.501718      0.540312     Biso  1.000000 H
   H428       1.0     0.681320      0.502824      0.541337     Biso  1.000000 H
   H429       1.0     0.712269      0.514086      0.655614     Biso  1.000000 H
   H430       1.0     0.625224      0.527944      0.692670     Biso  1.000000 H
   H431       1.0     0.636064      0.506667      0.732579     Biso  1.000000 H
   H432       1.0     0.709081      0.525016      0.795635     Biso  1.000000 H
   H433       1.0     0.657812      0.535320      0.564282     Biso  1.000000 H
   H434       1.0     0.867838      0.486305      0.063576     Biso  1.000000 H
   H435       1.0     0.782213      0.482243      0.159176     Biso  1.000000 H
   H436       1.0     0.951232      0.484034      0.169350     Biso  1.000000 H
   H437       1.0     0.864494      0.498226      0.199557     Biso  1.000000 H
   H438       1.0     0.814047      0.476159      0.294076     Biso  1.000000 H
   H439       1.0     0.916885      0.477173      0.299817     Biso  1.000000 H
   H440       1.0     0.864674      0.478159      0.392658     Biso  1.000000 H
   H441       1.0     0.778059      0.492274      0.424825     Biso  1.000000 H
   H442       1.0     0.947092      0.494062      0.436226     Biso  1.000000 H
   H443       1.0     0.862038      0.489664      0.530306     Biso  1.000000 H
   H444       1.0     0.821632      0.480470      0.590618     Biso  1.000000 H
   H445       1.0     0.924831      0.482039      0.591859     Biso  1.000000 H
   H446       1.0     0.789400      0.473945      0.722668     Biso  1.000000 H
   H447       1.0     0.958488      0.476081      0.725223     Biso  1.000000 H
   H448       1.0     0.818414      0.497471      0.824418     Biso  1.000000 H
   H449       1.0     0.873793      0.472080      0.825242     Biso  1.000000 H
   H450       1.0     0.921217      0.498596      0.827455     Biso  1.000000 H
   H451       1.0     0.752194      0.530654      0.282469     Biso  1.000000 H
   H452       1.0     0.759748      0.515440      0.044394     Biso  1.000000 H
   H453       1.0     0.887081      0.528204      0.035336     Biso  1.000000 H
   H454       1.0     0.989299      0.529123      0.039886     Biso  1.000000 H
   H455       1.0     0.939129      0.506418      0.129078     Biso  1.000000 H
   H456       1.0     0.853022      0.520686      0.164573     Biso  1.000000 H
   H457       1.0     0.790709      0.508706      0.179144     Biso  1.000000 H
   H458       1.0     0.936844      0.517712      0.267890     Biso  1.000000 H
   H459       1.0     0.812709      0.499984      0.296916     Biso  1.000000 H
   H460       1.0     0.859890      0.526202      0.307901     Biso  1.000000 H
   H461       1.0     0.914644      0.500647      0.303396     Biso  1.000000 H
   H462       1.0     0.774926      0.521787      0.403145     Biso  1.000000 H
   H463       1.0     0.944030      0.523589      0.410543     Biso  1.000000 H
   H464       1.0     0.788004      0.538218      0.155807     Biso  1.000000 H
   H465       1.0     0.857159      0.537600      0.446150     Biso  1.000000 H
   H466       1.0     0.807197      0.514957      0.535897     Biso  1.000000 H
   H467       1.0     0.911398      0.516449      0.539450     Biso  1.000000 H
   H468       1.0     0.869397      0.507357      0.593397     Biso  1.000000 H
   H469       1.0     0.943200      0.527541      0.654124     Biso  1.000000 H
   H470       1.0     0.794228      0.529891      0.700425     Biso  1.000000 H
   H471       1.0     0.785648      0.503336      0.689541     Biso  1.000000 H
   H472       1.0     0.954734      0.505440      0.695467     Biso  1.000000 H
   H473       1.0     0.867826      0.519549      0.728576     Biso  1.000000 H
   H474       1.0     0.762027      0.536787      0.567795     Biso  1.000000 H
   H475       1.0     0.941326      0.538265      0.794983     Biso  1.000000 H
   H476       1.0     0.019754      0.551534      0.152794     Biso  1.000000 H
   H477       1.0     0.016775      0.561281      0.413347     Biso  1.000000 H
   H478       1.0     0.185456      0.561001      0.320903     Biso  1.000000 H
   H479       1.0     0.152205      0.553766      0.451859     Biso  1.000000 H
   H480       1.0     0.239142      0.539769      0.417542     Biso  1.000000 H
   H481       1.0     0.243123      0.548531      0.089310     Biso  1.000000 H
   H482       1.0     0.156243      0.544200      0.182026     Biso  1.000000 H
   H483       1.0     0.238505      0.559975      0.227258     Biso  1.000000 H
   H484       1.0     0.025942      0.543133      0.697110     Biso  1.000000 H
   H485       1.0     0.158997      0.565027      0.712346     Biso  1.000000 H
   H486       1.0     0.191610      0.558222      0.845311     Biso  1.000000 H
   H487       1.0     0.195012      0.542888      0.607585     Biso  1.000000 H
   H488       1.0     0.243720      0.569608      0.617657     Biso  1.000000 H
   H489       1.0     0.237659      0.551662      0.553618     Biso  1.000000 H
   H490       1.0     0.013636      0.590732      0.384326     Biso  1.000000 H
   H491       1.0     0.148276      0.583171      0.424602     Biso  1.000000 H
   H492       1.0     0.232747      0.587258      0.324715     Biso  1.000000 H
   H493       1.0     0.230523      0.599378      0.460485     Biso  1.000000 H
   H494       1.0     0.056537      0.614269      0.172653     Biso  1.000000 H
   H495       1.0     0.225135      0.614644      0.074469     Biso  1.000000 H
   H496       1.0     0.190176      0.607644      0.204391     Biso  1.000000 H
   H497       1.0     0.023032      0.572702      0.678643     Biso  1.000000 H
   H498       1.0     0.241191      0.581014      0.755957     Biso  1.000000 H
   H499       1.0     0.182082      0.576985      0.557373     Biso  1.000000 H
   H500       1.0     0.288677      0.562184      0.323943     Biso  1.000000 H
   H501       1.0     0.321300      0.555944      0.457775     Biso  1.000000 H
   H502       1.0     0.384778      0.567185      0.457631     Biso  1.000000 H
   H503       1.0     0.470997      0.552924      0.419382     Biso  1.000000 H
   H504       1.0     0.394333      0.545171      0.489448     Biso  1.000000 H
   H505       1.0     0.473574      0.562222      0.089786     Biso  1.000000 H
   H506       1.0     0.387898      0.557842      0.185691     Biso  1.000000 H
   H507       1.0     0.420378      0.550896      0.317437     Biso  1.000000 H
   H508       1.0     0.325175      0.545791      0.199103     Biso  1.000000 H
   H509       1.0     0.293650      0.559296      0.850647     Biso  1.000000 H
   H510       1.0     0.299199      0.544360      0.611087     Biso  1.000000 H
   H511       1.0     0.327907      0.567014      0.721846     Biso  1.000000 H
   H512       1.0     0.394084      0.549107      0.738609     Biso  1.000000 H
   H513       1.0     0.425688      0.556604      0.608964     Biso  1.000000 H
   H514       1.0     0.478509      0.545836      0.838278     Biso  1.000000 H
   H515       1.0     0.470706      0.564734      0.555871     Biso  1.000000 H
   H516       1.0     0.470707      0.573372      0.229032     Biso  1.000000 H
   H517       1.0     0.276002      0.593020      0.173977     Biso  1.000000 H
   H518       1.0     0.317358      0.585389      0.427027     Biso  1.000000 H
   H519       1.0     0.381680      0.596613      0.428824     Biso  1.000000 H
   H520       1.0     0.416784      0.574210      0.324890     Biso  1.000000 H
   H521       1.0     0.359284      0.608554      0.212827     Biso  1.000000 H
   H522       1.0     0.326744      0.615138      0.079186     Biso  1.000000 H
   H523       1.0     0.273851      0.605021      0.310222     Biso  1.000000 H
   H524       1.0     0.465430      0.600388      0.326864     Biso  1.000000 H
   H525       1.0     0.464519      0.612547      0.462543     Biso  1.000000 H
   H526       1.0     0.391235      0.578685      0.715902     Biso  1.000000 H
   H527       1.0     0.424290      0.571605      0.847662     Biso  1.000000 H
   H528       1.0     0.473911      0.594403      0.758698     Biso  1.000000 H
   H529       1.0     0.475398      0.583233      0.619416     Biso  1.000000 H
   H530       1.0     0.285145      0.578595      0.558602     Biso  1.000000 H
   H531       1.0     0.415886      0.590352      0.560842     Biso  1.000000 H
   H532       1.0     0.280162      0.614262      0.701395     Biso  1.000000 H
   H533       1.0     0.705935      0.540959      0.046019     Biso  1.000000 H
   H534       1.0     0.701313      0.552403      0.183962     Biso  1.000000 H
   H535       1.0     0.648217      0.553429      0.277611     Biso  1.000000 H
   H536       1.0     0.614972      0.546200      0.408529     Biso  1.000000 H
   H537       1.0     0.644834      0.569420      0.514061     Biso  1.000000 H
   H538       1.0     0.700479      0.544089      0.510303     Biso  1.000000 H
   H539       1.0     0.747978      0.571020      0.515313     Biso  1.000000 H
   H540       1.0     0.553822      0.568828      0.456871     Biso  1.000000 H
   H541       1.0     0.556975      0.559098      0.196144     Biso  1.000000 H
   H542       1.0     0.522099      0.551269      0.323473     Biso  1.000000 H
   H543       1.0     0.706537      0.562037      0.574356     Biso  1.000000 H
   H544       1.0     0.621939      0.557478      0.668846     Biso  1.000000 H
   H545       1.0     0.654391      0.550658      0.801990     Biso  1.000000 H
   H546       1.0     0.529899      0.557902      0.609705     Biso  1.000000 H
   H547       1.0     0.562986      0.550683      0.740585     Biso  1.000000 H
   H548       1.0     0.738827      0.585448      0.130678     Biso  1.000000 H
   H549       1.0     0.695549      0.579686      0.281425     Biso  1.000000 H
   H550       1.0     0.611227      0.575616      0.381060     Biso  1.000000 H
   H551       1.0     0.693319      0.591806      0.417189     Biso  1.000000 H
   H552       1.0     0.520224      0.575246      0.324358     Biso  1.000000 H
   H553       1.0     0.550842      0.598299      0.427614     Biso  1.000000 H
   H554       1.0     0.687934      0.607074      0.031186     Biso  1.000000 H
   H555       1.0     0.652977      0.600075      0.161112     Biso  1.000000 H
   H556       1.0     0.736676      0.597449      0.266913     Biso  1.000000 H
   H557       1.0     0.511300      0.605753      0.178996     Biso  1.000000 H
   H558       1.0     0.703999      0.573441      0.712669     Biso  1.000000 H
   H559       1.0     0.526295      0.572371      0.850643     Biso  1.000000 H
   H560       1.0     0.560231      0.580269      0.721908     Biso  1.000000 H
   H561       1.0     0.518802      0.591485      0.559763     Biso  1.000000 H
   H562       1.0     0.742989      0.606690      0.658099     Biso  1.000000 H
   H563       1.0     0.751503      0.554609      0.280654     Biso  1.000000 H
   H564       1.0     0.936397      0.554647      0.046462     Biso  1.000000 H
   H565       1.0     0.850707      0.550269      0.142403     Biso  1.000000 H
   H566       1.0     0.933524      0.565802      0.185724     Biso  1.000000 H
   H567       1.0     0.883208      0.543322      0.274145     Biso  1.000000 H
   H568       1.0     0.984854      0.543699      0.280158     Biso  1.000000 H
   H569       1.0     0.879617      0.566635      0.281598     Biso  1.000000 H
   H570       1.0     0.982998      0.567680      0.281053     Biso  1.000000 H
   H571       1.0     0.933803      0.545354      0.376084     Biso  1.000000 H
   H572       1.0     0.784113      0.548370      0.414483     Biso  1.000000 H
   H573       1.0     0.847609      0.559610      0.414333     Biso  1.000000 H
   H574       1.0     0.933517      0.557162      0.512579     Biso  1.000000 H
   H575       1.0     0.888517      0.549030      0.565676     Biso  1.000000 H
   H576       1.0     0.992679      0.550336      0.566418     Biso  1.000000 H
   H577       1.0     0.854053      0.571111      0.672606     Biso  1.000000 H
   H578       1.0     0.790735      0.559440      0.678544     Biso  1.000000 H
   H579       1.0     0.856915      0.541534      0.695307     Biso  1.000000 H
   H580       1.0     0.756479      0.551723      0.807354     Biso  1.000000 H
   H581       1.0     0.887121      0.564032      0.804372     Biso  1.000000 H
   H582       1.0     0.989088      0.564800      0.807362     Biso  1.000000 H
   H583       1.0     0.928262      0.592815      0.283557     Biso  1.000000 H
   H584       1.0     0.780187      0.577814      0.383726     Biso  1.000000 H
   H585       1.0     0.844493      0.589039      0.385531     Biso  1.000000 H
   H586       1.0     0.878711      0.582778      0.517548     Biso  1.000000 H
   H587       1.0     0.981602      0.583917      0.516478     Biso  1.000000 H
   H588       1.0     0.789570      0.607564      0.035891     Biso  1.000000 H
   H589       1.0     0.974104      0.598179      0.135705     Biso  1.000000 H
   H590       1.0     0.887474      0.612443      0.163857     Biso  1.000000 H
   H591       1.0     0.822100      0.600981      0.169531     Biso  1.000000 H
   H592       1.0     0.971019      0.610594      0.270112     Biso  1.000000 H
   H593       1.0     0.927347      0.604974      0.419241     Biso  1.000000 H
   H594       1.0     0.938218      0.575661      0.576109     Biso  1.000000 H
   H595       1.0     0.936739      0.586830      0.715403     Biso  1.000000 H
   H596       1.0     0.023727      0.620251      0.038007     Biso  1.000000 H
   H597       1.0     0.019058      0.636766      0.272902     Biso  1.000000 H
   H598       1.0     0.220867      0.630397      0.311506     Biso  1.000000 H
   H599       1.0     0.188621      0.637131      0.178358     Biso  1.000000 H
   H600       1.0     0.027005      0.641642      0.564946     Biso  1.000000 H
   H601       1.0     0.060678      0.635679      0.698279     Biso  1.000000 H
   H602       1.0     0.226422      0.635559      0.606306     Biso  1.000000 H
   H603       1.0     0.194299      0.628684      0.737553     Biso  1.000000 H
   H604       1.0     0.053400      0.643657      0.142399     Biso  1.000000 H
   H605       1.0     0.017064      0.660412      0.275947     Biso  1.000000 H
   H606       1.0     0.049245      0.653663      0.409210     Biso  1.000000 H
   H607       1.0     0.219777      0.654454      0.316096     Biso  1.000000 H
   H608       1.0     0.185316      0.646580      0.444008     Biso  1.000000 H
   H609       1.0     0.046180      0.683185      0.383064     Biso  1.000000 H
   H610       1.0     0.013591      0.676039      0.512363     Biso  1.000000 H
   H611       1.0     0.183314      0.676133      0.425725     Biso  1.000000 H
   H612       1.0     0.056890      0.665057      0.668456     Biso  1.000000 H
   H613       1.0     0.023412      0.658182      0.800546     Biso  1.000000 H
   H614       1.0     0.225600      0.651645      0.842734     Biso  1.000000 H
   H615       1.0     0.192079      0.658167      0.710027     Biso  1.000000 H
   H616       1.0     0.216385      0.668869      0.556694     Biso  1.000000 H
   H617       1.0     0.459239      0.626710      0.076110     Biso  1.000000 H
   H618       1.0     0.424656      0.620018      0.207164     Biso  1.000000 H
   H619       1.0     0.357723      0.638022      0.185692     Biso  1.000000 H
   H620       1.0     0.323683      0.630991      0.315944     Biso  1.000000 H
   H621       1.0     0.274255      0.641095      0.081685     Biso  1.000000 H
   H622       1.0     0.271249      0.632180      0.409091     Biso  1.000000 H
   H623       1.0     0.363452      0.629908      0.737759     Biso  1.000000 H
   H624       1.0     0.329802      0.636461      0.605867     Biso  1.000000 H
   H625       1.0     0.279135      0.626041      0.838627     Biso  1.000000 H
   H626       1.0     0.428756      0.641116      0.739030     Biso  1.000000 H
   H627       1.0     0.453399      0.643337      0.310453     Biso  1.000000 H
   H628       1.0     0.421586      0.649422      0.175560     Biso  1.000000 H
   H629       1.0     0.417419      0.659443      0.441169     Biso  1.000000 H
   H630       1.0     0.347952      0.660104      0.149474     Biso  1.000000 H
   H631       1.0     0.354444      0.647670      0.452102     Biso  1.000000 H
   H632       1.0     0.321700      0.654601      0.320587     Biso  1.000000 H
   H633       1.0     0.271917      0.652572      0.219548     Biso  1.000000 H
   H634       1.0     0.452069      0.667159      0.313261     Biso  1.000000 H
   H635       1.0     0.430062      0.675885      0.195508     Biso  1.000000 H
   H636       1.0     0.414288      0.688956      0.419383     Biso  1.000000 H
   H637       1.0     0.399109      0.682619      0.060806     Biso  1.000000 H
   H638       1.0     0.343747      0.671695      0.286933     Biso  1.000000 H
   H639       1.0     0.352424      0.677286      0.427727     Biso  1.000000 H
   H640       1.0     0.296868      0.681661      0.051213     Biso  1.000000 H
   H641       1.0     0.261138      0.674296      0.178933     Biso  1.000000 H
   H642       1.0     0.267923      0.680420      0.328244     Biso  1.000000 H
   H643       1.0     0.266615      0.691591      0.467716     Biso  1.000000 H
   H644       1.0     0.492382      0.687860      0.180945     Biso  1.000000 H
   H645       1.0     0.460995      0.647645      0.606983     Biso  1.000000 H
   H646       1.0     0.361206      0.659394      0.710922     Biso  1.000000 H
   H647       1.0     0.328437      0.652354      0.843227     Biso  1.000000 H
   H648       1.0     0.270014      0.643477      0.547739     Biso  1.000000 H
   H649       1.0     0.275661      0.662112      0.611639     Biso  1.000000 H
   H650       1.0     0.457785      0.664636      0.840819     Biso  1.000000 H
   H651       1.0     0.446562      0.682116      0.552266     Biso  1.000000 H
   H652       1.0     0.425006      0.670505      0.705918     Biso  1.000000 H
   H653       1.0     0.320735      0.669995      0.557838     Biso  1.000000 H
   H654       1.0     0.275422      0.673868      0.748810     Biso  1.000000 H
   H655       1.0     0.737067      0.633523      0.038392     Biso  1.000000 H
   H656       1.0     0.651564      0.629582      0.134878     Biso  1.000000 H
   H657       1.0     0.683649      0.622830      0.268206     Biso  1.000000 H
   H658       1.0     0.734063      0.624610      0.365782     Biso  1.000000 H
   H659       1.0     0.648090      0.639013      0.400666     Biso  1.000000 H
   H660       1.0     0.732828      0.635904      0.504413     Biso  1.000000 H
   H661       1.0     0.593607      0.621828      0.216177     Biso  1.000000 H
   H662       1.0     0.560965      0.627819      0.081344     Biso  1.000000 H
   H663       1.0     0.508209      0.618164      0.313409     Biso  1.000000 H
   H664       1.0     0.689219      0.627990      0.563006     Biso  1.000000 H
   H665       1.0     0.657096      0.621116      0.694250     Biso  1.000000 H
   H666       1.0     0.741964      0.618469      0.795315     Biso  1.000000 H
   H667       1.0     0.515534      0.627040      0.706223     Biso  1.000000 H
   H668       1.0     0.513157      0.639249      0.841613     Biso  1.000000 H
   H669       1.0     0.734723      0.645003      0.176247     Biso  1.000000 H
   H670       1.0     0.682527      0.646885      0.272786     Biso  1.000000 H
   H671       1.0     0.679128      0.661307      0.513355     Biso  1.000000 H
   H672       1.0     0.590649      0.651209      0.185792     Biso  1.000000 H
   H673       1.0     0.586345      0.661209      0.452770     Biso  1.000000 H
   H674       1.0     0.556309      0.644348      0.316207     Biso  1.000000 H
   H675       1.0     0.507189      0.653483      0.079976     Biso  1.000000 H
   H676       1.0     0.503852      0.665397      0.215944     Biso  1.000000 H
   H677       1.0     0.504048      0.645320      0.409048     Biso  1.000000 H
   H678       1.0     0.723913      0.666727      0.135629     Biso  1.000000 H
   H679       1.0     0.730699      0.672852      0.284943     Biso  1.000000 H
   H680       1.0     0.646242      0.668586      0.382139     Biso  1.000000 H
   H681       1.0     0.729398      0.684022      0.424380     Biso  1.000000 H
   H682       1.0     0.661329      0.689120      0.188594     Biso  1.000000 H
   H683       1.0     0.578525      0.673584      0.145456     Biso  1.000000 H
   H684       1.0     0.576230      0.684883      0.284239     Biso  1.000000 H
   H685       1.0     0.583376      0.690772      0.426721     Biso  1.000000 H
   H686       1.0     0.554049      0.667814      0.319752     Biso  1.000000 H
   H687       1.0     0.738478      0.654541      0.568337     Biso  1.000000 H
   H688       1.0     0.655029      0.650621      0.666511     Biso  1.000000 H
   H689       1.0     0.738230      0.666299      0.705523     Biso  1.000000 H
   H690       1.0     0.688378      0.644080      0.799417     Biso  1.000000 H
   H691       1.0     0.597715      0.643228      0.741777     Biso  1.000000 H
   H692       1.0     0.564237      0.649207      0.608237     Biso  1.000000 H
   H693       1.0     0.501407      0.656838      0.546663     Biso  1.000000 H
   H694       1.0     0.594090      0.672626      0.711747     Biso  1.000000 H
   H695       1.0     0.560609      0.665760      0.843846     Biso  1.000000 H
   H696       1.0     0.550845      0.683605      0.555927     Biso  1.000000 H
   H697       1.0     0.508784      0.674502      0.609783     Biso  1.000000 H
   H698       1.0     0.507158      0.686750      0.744827     Biso  1.000000 H
   H699       1.0     0.922075      0.619138      0.032816     Biso  1.000000 H
   H700       1.0     0.884400      0.641845      0.132269     Biso  1.000000 H
   H701       1.0     0.820550      0.630448      0.142392     Biso  1.000000 H
   H702       1.0     0.786514      0.623417      0.272647     Biso  1.000000 H
   H703       1.0     0.916228      0.635759      0.267164     Biso  1.000000 H
   H704       1.0     0.966857      0.637753      0.365749     Biso  1.000000 H
   H705       1.0     0.817254      0.640098      0.408808     Biso  1.000000 H
   H706       1.0     0.792630      0.628888      0.562570     Biso  1.000000 H
   H707       1.0     0.923829      0.640073      0.563683     Biso  1.000000 H
   H708       1.0     0.978339      0.619466      0.662937     Biso  1.000000 H
   H709       1.0     0.826266      0.622336      0.694466     Biso  1.000000 H
   H710       1.0     0.891584      0.633541      0.695729     Biso  1.000000 H
   H711       1.0     0.975970      0.631679      0.798312     Biso  1.000000 H
   H712       1.0     0.969988      0.645890      0.036644     Biso  1.000000 H
   H713       1.0     0.810779      0.652532      0.106181     Biso  1.000000 H
   H714       1.0     0.966672      0.657847      0.172574     Biso  1.000000 H
   H715       1.0     0.784533      0.647026      0.277295     Biso  1.000000 H
   H716       1.0     0.914879      0.659579      0.270006     Biso  1.000000 H
   H717       1.0     0.880260      0.651873      0.397921     Biso  1.000000 H
   H718       1.0     0.783568      0.662421      0.514540     Biso  1.000000 H
   H719       1.0     0.964231      0.649270      0.503303     Biso  1.000000 H
   H720       1.0     0.759668      0.674091      0.007933     Biso  1.000000 H
   H721       1.0     0.861895      0.675039      0.017494     Biso  1.000000 H
   H722       1.0     0.892926      0.668326      0.152180     Biso  1.000000 H
   H723       1.0     0.752739      0.689652      0.246024     Biso  1.000000 H
   H724       1.0     0.806582      0.664120      0.243634     Biso  1.000000 H
   H725       1.0     0.854169      0.690322      0.256024     Biso  1.000000 H
   H726       1.0     0.962289      0.685915      0.280007     Biso  1.000000 H
   H727       1.0     0.877149      0.681381      0.376133     Biso  1.000000 H
   H728       1.0     0.815246      0.669712      0.384422     Biso  1.000000 H
   H729       1.0     0.909465      0.674552      0.508844     Biso  1.000000 H
   H730       1.0     0.824035      0.651819      0.667620     Biso  1.000000 H
   H731       1.0     0.887832      0.662930      0.662612     Biso  1.000000 H
   H732       1.0     0.791269      0.644781      0.799928     Biso  1.000000 H
   H733       1.0     0.920607      0.657058      0.797522     Biso  1.000000 H
   H734       1.0     0.971603      0.666929      0.566485     Biso  1.000000 H
   H735       1.0     0.969978      0.679178      0.701492     Biso  1.000000 H
   H736       1.0     0.499259      0.693348      0.324255     Biso  1.000000 H
   H737       1.0     0.496561      0.704814      0.462378     Biso  1.000000 H
   H738       1.0     0.427340      0.705387      0.172255     Biso  1.000000 H
   H739       1.0     0.391381      0.697897      0.299317     Biso  1.000000 H
   H740       1.0     0.345304      0.708131      0.062608     Biso  1.000000 H
   H741       1.0     0.289963      0.697215      0.289327     Biso  1.000000 H
   H742       1.0     0.258441      0.703802      0.155142     Biso  1.000000 H
   H743       1.0     0.490053      0.717437      0.158791     Biso  1.000000 H
   H744       1.0     0.340685      0.719597      0.200745     Biso  1.000000 H
   H745       1.0     0.721364      0.696248      0.111697     Biso  1.000000 H
   H746       1.0     0.628716      0.696289      0.056347     Biso  1.000000 H
   H747       1.0     0.624119      0.710928      0.296944     Biso  1.000000 H
   H748       1.0     0.526420      0.695379      0.051743     Biso  1.000000 H
   H749       1.0     0.522679      0.710554      0.290961     Biso  1.000000 H
   H750       1.0     0.659172      0.718697      0.169210     Biso  1.000000 H
   H751       1.0     0.575767      0.721762      0.062446     Biso  1.000000 H
   H752       1.0     0.572887      0.732850      0.202984     Biso  1.000000 H
   H753       1.0     0.808104      0.700559      0.019305     Biso  1.000000 H
   H754       1.0     0.890219      0.697826      0.128992     Biso  1.000000 H
   H755       1.0     0.803476      0.712019      0.157452     Biso  1.000000 H
   H756       1.0     0.959382      0.697217      0.418959     Biso  1.000000 H
